version 2
run Host30_10pps-0-20161107-11:47:08-9780
attr configname Host30_10pps
attr datetime 20161107-11:47:08
attr experiment Host30_10pps
attr inifile omnetpp_30.ini
attr iterationvars ""
attr iterationvars2 $repetition=0
attr measurement ""
attr network arb_png.car_host_30
attr processid 9780
attr repetition 0
attr replication #0
attr resultdir results
attr runnumber 0
attr seedset 0
param **.aodv.activeRouteTimeout 2s
param *.configurator.addStaticRoutes false
param *.configurator.config "xml(\"<config><interface hosts='**' address='10.0.0.x' netmask='255.255.255.0'/><autoroute metric='errorRate'/></config>\")"
param *.configurator.optimizeRoutes true
param *.host*.**.bitrate 1Mbps
param *.host*.networkLayer.arpType "\"GlobalARP\""
param *.host*.routingTable.netmaskRoutes "\"\""
param *.host*.wlan[0].mac.maxQueueSize 15
param *.host*.wlan[0].mac.useAck false
param *.host*.wlan[0].macType "\"CsmaCaMac\""
param *.host*.wlan[0].radio.bandwidth 2MHz
param *.host*.wlan[0].radio.carrierFrequency 2GHz
param *.host*.wlan[0].radio.displayCommunicationRange true
param *.host*.wlan[0].radio.displayInterferenceRange true
param *.host*.wlan[0].radio.receiver.energyDetection -85dBm
param *.host*.wlan[0].radio.receiver.ignoreInterference false
param *.host*.wlan[0].radio.receiver.sensitivity -85dBm
param *.host*.wlan[0].radio.receiver.snirThreshold 4dB
param *.host*.wlan[0].radio.transmitter.communicationRange 200m
param *.host*.wlan[0].radio.transmitter.headerBitLength 0b
param *.host*.wlan[0].radio.transmitter.power 1.4mW
param *.host*.wlan[0].radio.transmitter.preambleDuration 10us
param *.host*.wlan[0].radioType "\"APSKScalarRadio\""
param *.host*.wlan[0].typename "\"WirelessNic\""
param *.hostA.numUdpApps 1
param *.hostA.udpApp[0].destAddresses "\"hostD\""
param *.hostA.udpApp[0].destPort 5000
param *.hostA.udpApp[0].messageLength 1000B
param *.hostA.udpApp[0].packetName "\"Data\""
param *.hostA.udpApp[0].sendInterval 100ms
param *.hostA.udpApp[0].typename "\"UDPBasicApp\""
param *.hostD.numUdpApps 1
param *.hostD.udpApp[0].localPort 5000
param *.hostD.udpApp[0].typename "\"UDPSink\""
param *.hostType "\"AODVRouter\""
param *.mediumType "\"APSKScalarRadioMedium\""
param *.radioMedium.backgroundNoise.power -90dBm
param *.radioMedium.mediumLimitCache.carrierFrequency 2GHz
param *.visualizer.dataLinkVisualizer.packetNameFilter "\"AODV*\""
param *.visualizer.mediumVisualizer.signalPropagationUpdateInterval 100ns
param *.visualizer.mobilityVisualizer.displayMovementTrail true
param *.visualizer.networkRouteVisualizer.packetNameFilter "\"UDPData*\""
param *.visualizer.sceneVisualizer.descriptionFigure "\"title\""

scalar car_host_30.radioMedium.propagation 	"Arrival computation count" 	84196
scalar car_host_30.radioMedium 	"transmission count" 	2716
scalar car_host_30.radioMedium 	"radio frame send count" 	84196
scalar car_host_30.radioMedium 	"reception computation count" 	84165
scalar car_host_30.radioMedium 	"interference computation count" 	254293
scalar car_host_30.radioMedium 	"reception decision computation count" 	31817
scalar car_host_30.radioMedium 	"listening decision computation count" 	138361
scalar car_host_30.radioMedium 	"reception cache hit" 	80.674914240842
attr unit  %
scalar car_host_30.radioMedium 	"interference cache hit" 	66.666666666667
attr unit  %
scalar car_host_30.radioMedium 	"noise cache hit" 	0
attr unit  %
scalar car_host_30.radioMedium 	"snir cache hit" 	50
attr unit  %
scalar car_host_30.radioMedium 	"reception decision cache hit" 	50
attr unit  %
scalar car_host_30.radioMedium 	"reception result cache hit" 	0
attr unit  %
scalar car_host_30.hostA.lo0.lo 	droppedPkBitError:count 	0
attr interpolationmode  none
attr source  dropPkBitError
attr title  "packets dropped/bit error, count"
scalar car_host_30.hostA.lo0.lo 	droppedPkBitError:sum(packetBytes) 	0
attr interpolationmode  none
attr source  dropPkBitError
attr title  "packets dropped/bit error, sum(packetBytes)"
scalar car_host_30.hostA.lo0.lo 	rcvdPkFromHL:count 	0
attr interpolationmode  none
attr source  packetReceivedFromUpper
attr title  "packets received from higher layer, count"
scalar car_host_30.hostA.lo0.lo 	rcvdPkFromHL:sum(packetBytes) 	0
attr interpolationmode  none
attr source  packetReceivedFromUpper
attr title  "packets received from higher layer, sum(packetBytes)"
scalar car_host_30.hostA.lo0.lo 	passedUpPk:count 	0
attr interpolationmode  none
attr source  packetSentToUpper
attr title  "packets passed to higher layer, count"
scalar car_host_30.hostA.lo0.lo 	passedUpPk:sum(packetBytes) 	0
attr interpolationmode  none
attr source  packetSentToUpper
attr title  "packets passed to higher layer, sum(packetBytes)"
scalar car_host_30.hostA.wlan[0].mac 	numRetry 	0
scalar car_host_30.hostA.wlan[0].mac 	numSentWithoutRetry 	0
scalar car_host_30.hostA.wlan[0].mac 	numGivenUp 	0
scalar car_host_30.hostA.wlan[0].mac 	numCollision 	38
scalar car_host_30.hostA.wlan[0].mac 	numSent 	599
scalar car_host_30.hostA.wlan[0].mac 	numReceived 	1
scalar car_host_30.hostA.wlan[0].mac 	numSentBroadcast 	4
scalar car_host_30.hostA.wlan[0].mac 	numReceivedBroadcast 	20
statistic car_host_30.hostA.wlan[0].radio 	symbolErrorRate:histogram
field count 598
field mean 6.6321212492081e-005
field stddev 0.00073981617549314
field sum 0.039660085070264
field sqrsum 0.00032938510512161
field min 1.3620169898655e-015
field max 0.013299234964148
attr source  symbolErrorRate
attr title  "Symbol error rate, histogram"
bin	-INF	0
bin	-0.006649617482072	0
bin	-0.0057630018177955	0
bin	-0.0048763861535191	0
bin	-0.0039897704892426	0
bin	-0.0031031548249662	0
bin	-0.0022165391606898	0
bin	-0.0013299234964133	0
bin	-0.00044330783213686	593
bin	0.00044330783213959	0
bin	0.001329923496416	1
bin	0.0022165391606925	0
bin	0.0031031548249689	0
bin	0.0039897704892454	0
bin	0.0048763861535218	1
bin	0.0057630018177983	0
bin	0.0066496174820747	1
bin	0.0075362331463512	0
bin	0.0084228488106276	1
bin	0.0093094644749041	0
bin	0.01019608013918	0
bin	0.011082695803457	0
bin	0.011969311467733	0
bin	0.01285592713201	1
bin	0.013742542796286	0
bin	0.014629158460563	0
bin	0.015515774124839	0
bin	0.016402389789116	0
bin	0.017289005453392	0
bin	0.018175621117669	0
bin	0.019062236781945	0
bin	0.019948852446221	0
statistic car_host_30.hostA.wlan[0].radio 	bitErrorRate:histogram
field count 598
field mean 6.6321212492081e-005
field stddev 0.00073981617549314
field sum 0.039660085070264
field sqrsum 0.00032938510512161
field min 1.3620169898655e-015
field max 0.013299234964148
attr source  bitErrorRate
attr title  "Bit error rate, histogram"
bin	-INF	0
bin	-0.006649617482072	0
bin	-0.0057630018177955	0
bin	-0.0048763861535191	0
bin	-0.0039897704892426	0
bin	-0.0031031548249662	0
bin	-0.0022165391606898	0
bin	-0.0013299234964133	0
bin	-0.00044330783213686	593
bin	0.00044330783213959	0
bin	0.001329923496416	1
bin	0.0022165391606925	0
bin	0.0031031548249689	0
bin	0.0039897704892454	0
bin	0.0048763861535218	1
bin	0.0057630018177983	0
bin	0.0066496174820747	1
bin	0.0075362331463512	0
bin	0.0084228488106276	1
bin	0.0093094644749041	0
bin	0.01019608013918	0
bin	0.011082695803457	0
bin	0.011969311467733	0
bin	0.01285592713201	1
bin	0.013742542796286	0
bin	0.014629158460563	0
bin	0.015515774124839	0
bin	0.016402389789116	0
bin	0.017289005453392	0
bin	0.018175621117669	0
bin	0.019062236781945	0
bin	0.019948852446221	0
statistic car_host_30.hostA.wlan[0].radio 	packetErrorRate:histogram
field count 598
field mean 0.051738635974557
field stddev 0.079221701984309
field sum 30.939704312785
field sqrsum 5.3475967035782
field min 6.3948846218409e-013
field max 1
attr source  packetErrorRate
attr title  "Packet error rate, histogram"
bin	-INF	0
bin	-0.49999999999904	0
bin	-0.43333333333242	0
bin	-0.36666666666579	0
bin	-0.29999999999917	0
bin	-0.23333333333254	0
bin	-0.16666666666592	0
bin	-0.099999999999297	0
bin	-0.033333333332673	20
bin	0.033333333333951	572
bin	0.10000000000058	1
bin	0.1666666666672	0
bin	0.23333333333382	0
bin	0.30000000000045	0
bin	0.36666666666707	0
bin	0.4333333333337	0
bin	0.50000000000032	1
bin	0.56666666666694	0
bin	0.63333333333357	0
bin	0.70000000000019	0
bin	0.76666666666682	0
bin	0.83333333333344	0
bin	0.90000000000006	1
bin	0.96666666666669	3
bin	1.0333333333333	0
bin	1.0999999999999	0
bin	1.1666666666666	0
bin	1.2333333333332	0
bin	1.2999999999998	0
bin	1.3666666666664	0
bin	1.4333333333331	0
bin	1.4999999999997	0
statistic car_host_30.hostA.wlan[0].radio 	minSNIR:histogram
field count 598
field mean 4.8590883699903
field stddev 0.82986735417717
field sum 2905.7348452542
field sqrsum 14530.364248691
field min 1.229171843854
field max 15.614110336308
attr source  minSNIR
attr title  "Min SNIR, histogram"
bin	-INF	0
bin	-5.9632974023731	0
bin	-5.0043015028761	0
bin	-4.0453056033792	0
bin	-3.0863097038823	0
bin	-2.1273138043853	0
bin	-1.1683179048884	0
bin	-0.20932200539143	0
bin	0.74967389410551	4
bin	1.7086697936024	1
bin	2.6676656930994	1
bin	3.6266615925963	5
bin	4.5856574920933	577
bin	5.5446533915902	2
bin	6.5036492910871	2
bin	7.4626451905841	1
bin	8.421641090081	1
bin	9.380636989578	0
bin	10.339632889075	2
bin	11.298628788572	0
bin	12.257624688069	0
bin	13.216620587566	0
bin	14.175616487063	0
bin	15.13461238656	2
bin	16.093608286057	0
bin	17.052604185553	0
bin	18.01160008505	0
bin	18.970595984547	0
bin	19.929591884044	0
bin	20.888587783541	0
bin	21.847583683038	0
bin	22.806579582535	0
scalar car_host_30.hostA.wlan[0].radio 	transmissionState:count 	2414
attr interpolationmode  sample-hold
attr source  transmissionStateChanged
attr title  "Radio transmission state, count"
scalar car_host_30.hostA.wlan[0].radio 	receptionState:count 	3569
attr interpolationmode  sample-hold
attr source  receptionStateChanged
attr title  "Radio reception state, count"
scalar car_host_30.hostA.wlan[0].radio 	radioMode:count 	1209
attr interpolationmode  sample-hold
attr source  radioModeChanged
attr title  "Radio mode, count"
scalar car_host_30.hostA.udpApp[0] 	"packets sent" 	600
scalar car_host_30.hostA.udpApp[0] 	"packets received" 	0
scalar car_host_30.hostA.udpApp[0] 	sentPk:count 	600
attr interpolationmode  none
attr source  sentPk
attr title  "packets sent, count"
scalar car_host_30.hostA.udpApp[0] 	sentPk:sum(packetBytes) 	600000
attr interpolationmode  none
attr source  sentPk
attr title  "packets sent, sum(packetBytes)"
scalar car_host_30.hostA.udpApp[0] 	rcvdPk:count 	0
attr interpolationmode  none
attr source  rcvdPk
attr title  "packets received, count"
scalar car_host_30.hostA.udpApp[0] 	rcvdPk:sum(packetBytes) 	0
attr interpolationmode  none
attr source  rcvdPk
attr title  "packets received, sum(packetBytes)"
scalar car_host_30.hostA.udpApp[0] 	throughput:last 	nan
attr source  throughput(rcvdPk)
attr title  "throughput, last"
attr unit  bps
statistic car_host_30.hostA.udpApp[0] 	rcvdPkLifetime:stats
field count 0
field mean nan
field stddev nan
field sum 0
field sqrsum 0
field min nan
field max nan
attr interpolationmode  none
attr source  messageAge(rcvdPk)
attr title  "received packet lifetime, stats"
attr unit  s
scalar car_host_30.hostA.udp 	droppedPkBadChecksum:count 	0
attr interpolationmode  none
attr title  "packets dropped (checksum error), count"
scalar car_host_30.hostA.udp 	droppedPkWrongPort:count 	0
attr interpolationmode  none
attr title  "packets dropped (wrong port), count"
scalar car_host_30.hostA.udp 	passedUpPk:count 	0
attr interpolationmode  none
attr title  "packets passed up, count"
scalar car_host_30.hostA.udp 	sentPk:count 	600
attr interpolationmode  none
attr source  sentPk
attr title  "packets sent, count"
scalar car_host_30.hostA.udp 	sentPk:sum(packetBytes) 	604800
attr interpolationmode  none
attr source  sentPk
attr title  "packets sent, sum(packetBytes)"
scalar car_host_30.hostA.udp 	rcvdPk:count 	0
attr interpolationmode  none
attr source  rcvdPk
attr title  "packets received, count"
scalar car_host_30.hostA.udp 	rcvdPk:sum(packetBytes) 	0
attr interpolationmode  none
attr source  rcvdPk
attr title  "packets received, sum(packetBytes)"
scalar car_host_30.hostD.lo0.lo 	droppedPkBitError:count 	0
attr interpolationmode  none
attr source  dropPkBitError
attr title  "packets dropped/bit error, count"
scalar car_host_30.hostD.lo0.lo 	droppedPkBitError:sum(packetBytes) 	0
attr interpolationmode  none
attr source  dropPkBitError
attr title  "packets dropped/bit error, sum(packetBytes)"
scalar car_host_30.hostD.lo0.lo 	rcvdPkFromHL:count 	0
attr interpolationmode  none
attr source  packetReceivedFromUpper
attr title  "packets received from higher layer, count"
scalar car_host_30.hostD.lo0.lo 	rcvdPkFromHL:sum(packetBytes) 	0
attr interpolationmode  none
attr source  packetReceivedFromUpper
attr title  "packets received from higher layer, sum(packetBytes)"
scalar car_host_30.hostD.lo0.lo 	passedUpPk:count 	0
attr interpolationmode  none
attr source  packetSentToUpper
attr title  "packets passed to higher layer, count"
scalar car_host_30.hostD.lo0.lo 	passedUpPk:sum(packetBytes) 	0
attr interpolationmode  none
attr source  packetSentToUpper
attr title  "packets passed to higher layer, sum(packetBytes)"
scalar car_host_30.hostD.wlan[0].mac 	numRetry 	0
scalar car_host_30.hostD.wlan[0].mac 	numSentWithoutRetry 	0
scalar car_host_30.hostD.wlan[0].mac 	numGivenUp 	0
scalar car_host_30.hostD.wlan[0].mac 	numCollision 	5
scalar car_host_30.hostD.wlan[0].mac 	numSent 	2
scalar car_host_30.hostD.wlan[0].mac 	numReceived 	153
scalar car_host_30.hostD.wlan[0].mac 	numSentBroadcast 	0
scalar car_host_30.hostD.wlan[0].mac 	numReceivedBroadcast 	7
statistic car_host_30.hostD.wlan[0].radio 	symbolErrorRate:histogram
field count 168
field mean 0.00042048629259205
field stddev 0.0050048888856187
field sum 0.070641697155465
field sqrsum 0.0042128722958234
field min 1.0538608768325e-020
field max 0.064845877474593
attr source  symbolErrorRate
attr title  "Symbol error rate, histogram"
bin	-INF	0
bin	-0.032422938737297	0
bin	-0.02809988023899	0
bin	-0.023776821740684	0
bin	-0.019453763242378	0
bin	-0.015130704744072	0
bin	-0.010807646245766	0
bin	-0.0064845877474593	0
bin	-0.0021615292491531	167
bin	0.0021615292491531	0
bin	0.0064845877474593	0
bin	0.010807646245766	0
bin	0.015130704744072	0
bin	0.019453763242378	0
bin	0.023776821740684	0
bin	0.02809988023899	0
bin	0.032422938737297	0
bin	0.036745997235603	0
bin	0.041069055733909	0
bin	0.045392114232215	0
bin	0.049715172730522	0
bin	0.054038231228828	0
bin	0.058361289727134	0
bin	0.06268434822544	1
bin	0.067007406723746	0
bin	0.071330465222053	0
bin	0.075653523720359	0
bin	0.079976582218665	0
bin	0.084299640716971	0
bin	0.088622699215277	0
bin	0.092945757713584	0
bin	0.09726881621189	0
statistic car_host_30.hostD.wlan[0].radio 	bitErrorRate:histogram
field count 168
field mean 0.00042048629259205
field stddev 0.0050048888856187
field sum 0.070641697155465
field sqrsum 0.0042128722958234
field min 1.0538608768325e-020
field max 0.064845877474593
attr source  bitErrorRate
attr title  "Bit error rate, histogram"
bin	-INF	0
bin	-0.032422938737297	0
bin	-0.02809988023899	0
bin	-0.023776821740684	0
bin	-0.019453763242378	0
bin	-0.015130704744072	0
bin	-0.010807646245766	0
bin	-0.0064845877474593	0
bin	-0.0021615292491531	167
bin	0.0021615292491531	0
bin	0.0064845877474593	0
bin	0.010807646245766	0
bin	0.015130704744072	0
bin	0.019453763242378	0
bin	0.023776821740684	0
bin	0.02809988023899	0
bin	0.032422938737297	0
bin	0.036745997235603	0
bin	0.041069055733909	0
bin	0.045392114232215	0
bin	0.049715172730522	0
bin	0.054038231228828	0
bin	0.058361289727134	0
bin	0.06268434822544	1
bin	0.067007406723746	0
bin	0.071330465222053	0
bin	0.075653523720359	0
bin	0.079976582218665	0
bin	0.084299640716971	0
bin	0.088622699215277	0
bin	0.092945757713584	0
bin	0.09726881621189	0
statistic car_host_30.hostD.wlan[0].radio 	packetErrorRate:histogram
field count 168
field mean 0.01819513210761
field stddev 0.10605091751999
field sum 3.0567821940785
field sqrsum 1.9338336726862
field min 0
field max 0.99999999999999
attr source  packetErrorRate
attr title  "Packet error rate, histogram"
bin	-INF	0
bin	-0.49999999999999	0
bin	-0.43333333333333	0
bin	-0.36666666666666	0
bin	-0.3	0
bin	-0.23333333333333	0
bin	-0.16666666666666	0
bin	-0.099999999999999	0
bin	-0.033333333333333	162
bin	0.033333333333333	1
bin	0.099999999999999	0
bin	0.16666666666666	0
bin	0.23333333333333	0
bin	0.3	0
bin	0.36666666666666	2
bin	0.43333333333333	0
bin	0.49999999999999	1
bin	0.56666666666666	1
bin	0.63333333333333	0
bin	0.69999999999999	0
bin	0.76666666666666	0
bin	0.83333333333332	0
bin	0.89999999999999	0
bin	0.96666666666666	1
bin	1.0333333333333	0
bin	1.1	0
bin	1.1666666666667	0
bin	1.2333333333333	0
bin	1.3	0
bin	1.3666666666667	0
bin	1.4333333333333	0
bin	1.5	0
statistic car_host_30.hostD.wlan[0].radio 	minSNIR:histogram
field count 168
field mean 8.0354222902597
field stddev 1.694710122528
field sum 1349.9509447636
field sqrsum 11327.05699301
field min 0.57404757076302
field max 21.421801566153
attr source  minSNIR
attr title  "Min SNIR, histogram"
bin	-INF	0
bin	-9.8498294269318	0
bin	-8.4599791605725	0
bin	-7.0701288942132	0
bin	-5.6802786278539	0
bin	-4.2904283614946	0
bin	-2.9005780951353	0
bin	-1.5107278287759	0
bin	-0.12087756241664	1
bin	1.2689727039427	4
bin	2.658822970302	3
bin	4.0486732366613	3
bin	5.4385235030206	1
bin	6.8283737693799	0
bin	8.2182240357392	154
bin	9.6080743020985	0
bin	10.997924568458	1
bin	12.387774834817	0
bin	13.777625101176	0
bin	15.167475367536	0
bin	16.557325633895	0
bin	17.947175900254	0
bin	19.337026166614	0
bin	20.726876432973	1
bin	22.116726699332	0
bin	23.506576965692	0
bin	24.896427232051	0
bin	26.28627749841	0
bin	27.67612776477	0
bin	29.065978031129	0
bin	30.455828297488	0
bin	31.845678563848	0
scalar car_host_30.hostD.wlan[0].radio 	transmissionState:count 	8
attr interpolationmode  sample-hold
attr source  transmissionStateChanged
attr title  "Radio transmission state, count"
scalar car_host_30.hostD.wlan[0].radio 	receptionState:count 	658
attr interpolationmode  sample-hold
attr source  receptionStateChanged
attr title  "Radio reception state, count"
scalar car_host_30.hostD.wlan[0].radio 	radioMode:count 	6
attr interpolationmode  sample-hold
attr source  radioModeChanged
attr title  "Radio mode, count"
scalar car_host_30.hostD.udpApp[0] 	rcvdPk:count 	153
attr interpolationmode  none
attr source  rcvdPk
attr title  "packets received, count"
scalar car_host_30.hostD.udpApp[0] 	rcvdPk:sum(packetBytes) 	153000
attr interpolationmode  none
attr source  rcvdPk
attr title  "packets received, sum(packetBytes)"
scalar car_host_30.hostD.udpApp[0] 	throughput:last 	79475.461951123
attr source  throughput(rcvdPk)
attr title  "throughput, last"
attr unit  bps
statistic car_host_30.hostD.udpApp[0] 	endToEndDelay:histogram
field count 153
field mean 0.052694692598085
field stddev 0.012991509763137
field sum 8.062287967507
field sqrsum 0.45049424362572
field min 0.050531372965
field max 0.212239276827
attr interpolationmode  none
attr source  messageAge(rcvdPk)
attr title  "end-to-end delay, histogram"
attr unit  s
bin	-INF	0
bin	-0.030322578966	0
bin	-0.019542052041867	0
bin	-0.0087615251177334	0
bin	0.0020190018064	0
bin	0.012799528730533	0
bin	0.023580055654667	0
bin	0.0343605825788	0
bin	0.045141109502933	152
bin	0.055921636427067	0
bin	0.0667021633512	0
bin	0.077482690275333	0
bin	0.088263217199467	0
bin	0.0990437441236	0
bin	0.10982427104773	0
bin	0.12060479797187	0
bin	0.131385324896	0
bin	0.14216585182013	0
bin	0.15294637874427	0
bin	0.1637269056684	0
bin	0.17450743259253	0
bin	0.18528795951667	0
bin	0.1960684864408	0
bin	0.20684901336493	1
bin	0.21762954028907	0
bin	0.2284100672132	0
bin	0.23919059413733	0
bin	0.24997112106147	0
bin	0.2607516479856	0
bin	0.27153217490973	0
bin	0.28231270183387	0
bin	0.293093228758	0
scalar car_host_30.hostD.udp 	droppedPkBadChecksum:count 	0
attr interpolationmode  none
attr title  "packets dropped (checksum error), count"
scalar car_host_30.hostD.udp 	droppedPkWrongPort:count 	0
attr interpolationmode  none
attr title  "packets dropped (wrong port), count"
scalar car_host_30.hostD.udp 	passedUpPk:count 	153
attr interpolationmode  none
attr title  "packets passed up, count"
scalar car_host_30.hostD.udp 	sentPk:count 	0
attr interpolationmode  none
attr source  sentPk
attr title  "packets sent, count"
scalar car_host_30.hostD.udp 	sentPk:sum(packetBytes) 	0
attr interpolationmode  none
attr source  sentPk
attr title  "packets sent, sum(packetBytes)"
scalar car_host_30.hostD.udp 	rcvdPk:count 	153
attr interpolationmode  none
attr source  rcvdPk
attr title  "packets received, count"
scalar car_host_30.hostD.udp 	rcvdPk:sum(packetBytes) 	154224
attr interpolationmode  none
attr source  rcvdPk
attr title  "packets received, sum(packetBytes)"
scalar car_host_30.hostB.lo0.lo 	droppedPkBitError:count 	0
attr interpolationmode  none
attr source  dropPkBitError
attr title  "packets dropped/bit error, count"
scalar car_host_30.hostB.lo0.lo 	droppedPkBitError:sum(packetBytes) 	0
attr interpolationmode  none
attr source  dropPkBitError
attr title  "packets dropped/bit error, sum(packetBytes)"
scalar car_host_30.hostB.lo0.lo 	rcvdPkFromHL:count 	0
attr interpolationmode  none
attr source  packetReceivedFromUpper
attr title  "packets received from higher layer, count"
scalar car_host_30.hostB.lo0.lo 	rcvdPkFromHL:sum(packetBytes) 	0
attr interpolationmode  none
attr source  packetReceivedFromUpper
attr title  "packets received from higher layer, sum(packetBytes)"
scalar car_host_30.hostB.lo0.lo 	passedUpPk:count 	0
attr interpolationmode  none
attr source  packetSentToUpper
attr title  "packets passed to higher layer, count"
scalar car_host_30.hostB.lo0.lo 	passedUpPk:sum(packetBytes) 	0
attr interpolationmode  none
attr source  packetSentToUpper
attr title  "packets passed to higher layer, sum(packetBytes)"
scalar car_host_30.hostB.wlan[0].mac 	numRetry 	0
scalar car_host_30.hostB.wlan[0].mac 	numSentWithoutRetry 	0
scalar car_host_30.hostB.wlan[0].mac 	numGivenUp 	0
scalar car_host_30.hostB.wlan[0].mac 	numCollision 	137
scalar car_host_30.hostB.wlan[0].mac 	numSent 	566
scalar car_host_30.hostB.wlan[0].mac 	numReceived 	566
scalar car_host_30.hostB.wlan[0].mac 	numSentBroadcast 	3
scalar car_host_30.hostB.wlan[0].mac 	numReceivedBroadcast 	27
statistic car_host_30.hostB.wlan[0].radio 	symbolErrorRate:histogram
field count 766
field mean 0.00052515771948833
field stddev 0.0071674612452517
field sum 0.40227081312806
field sqrsum 0.039511218660011
field min 3.3169377509172e-017
field max 0.18584842690767
attr source  symbolErrorRate
attr title  "Symbol error rate, histogram"
bin	-INF	0
bin	-0.092924213453837	0
bin	-0.080534318326659	0
bin	-0.068144423199481	0
bin	-0.055754528072302	0
bin	-0.043364632945124	0
bin	-0.030974737817946	0
bin	-0.018584842690767	0
bin	-0.0061949475635891	758
bin	0.0061949475635892	2
bin	0.018584842690767	3
bin	0.030974737817946	2
bin	0.043364632945124	0
bin	0.055754528072302	0
bin	0.068144423199481	0
bin	0.080534318326659	0
bin	0.092924213453837	0
bin	0.10531410858102	0
bin	0.11770400370819	0
bin	0.13009389883537	0
bin	0.14248379396255	0
bin	0.15487368908973	0
bin	0.16726358421691	0
bin	0.17965347934409	1
bin	0.19204337447126	0
bin	0.20443326959844	0
bin	0.21682316472562	0
bin	0.2292130598528	0
bin	0.24160295497998	0
bin	0.25399285010716	0
bin	0.26638274523433	0
bin	0.27877264036151	0
statistic car_host_30.hostB.wlan[0].radio 	bitErrorRate:histogram
field count 766
field mean 0.00052515771948833
field stddev 0.0071674612452517
field sum 0.40227081312806
field sqrsum 0.039511218660011
field min 3.3169377509172e-017
field max 0.18584842690767
attr source  bitErrorRate
attr title  "Bit error rate, histogram"
bin	-INF	0
bin	-0.092924213453837	0
bin	-0.080534318326659	0
bin	-0.068144423199481	0
bin	-0.055754528072302	0
bin	-0.043364632945124	0
bin	-0.030974737817946	0
bin	-0.018584842690767	0
bin	-0.0061949475635891	758
bin	0.0061949475635892	2
bin	0.018584842690767	3
bin	0.030974737817946	2
bin	0.043364632945124	0
bin	0.055754528072302	0
bin	0.068144423199481	0
bin	0.080534318326659	0
bin	0.092924213453837	0
bin	0.10531410858102	0
bin	0.11770400370819	0
bin	0.13009389883537	0
bin	0.14248379396255	0
bin	0.15487368908973	0
bin	0.16726358421691	0
bin	0.17965347934409	1
bin	0.19204337447126	0
bin	0.20443326959844	0
bin	0.21682316472562	0
bin	0.2292130598528	0
bin	0.24160295497998	0
bin	0.25399285010716	0
bin	0.26638274523433	0
bin	0.27877264036151	0
statistic car_host_30.hostB.wlan[0].radio 	packetErrorRate:histogram
field count 766
field mean 0.16605212013594
field stddev 0.30188123283817
field sum 127.19592402413
field sqrsum 90.837346092874
field min 0
field max 1
attr source  packetErrorRate
attr title  "Packet error rate, histogram"
bin	-INF	0
bin	-0.5	0
bin	-0.43333333333333	0
bin	-0.36666666666667	0
bin	-0.3	0
bin	-0.23333333333333	0
bin	-0.16666666666667	0
bin	-0.1	0
bin	-0.033333333333333	590
bin	0.033333333333333	8
bin	0.1	2
bin	0.16666666666667	0
bin	0.23333333333333	0
bin	0.3	1
bin	0.36666666666667	0
bin	0.43333333333333	0
bin	0.5	0
bin	0.56666666666667	1
bin	0.63333333333333	1
bin	0.7	152
bin	0.76666666666667	0
bin	0.83333333333333	0
bin	0.9	2
bin	0.96666666666667	9
bin	1.0333333333333	0
bin	1.1	0
bin	1.1666666666667	0
bin	1.2333333333333	0
bin	1.3	0
bin	1.3666666666667	0
bin	1.4333333333333	0
bin	1.5	0
statistic car_host_30.hostB.wlan[0].radio 	minSNIR:histogram
field count 766
field mean 5.1463814390633
field stddev 1.3249597992197
field sum 3942.1281823225
field sqrsum 21630.666937117
field min 0.19949595902079
field max 17.444724840971
attr source  minSNIR
attr title  "Min SNIR, histogram"
bin	-INF	0
bin	-8.4231184819541	0
bin	-7.2734365564908	0
bin	-6.1237546310275	0
bin	-4.9740727055642	0
bin	-3.8243907801008	0
bin	-2.6747088546375	0
bin	-1.5250269291742	0
bin	-0.37534500371087	1
bin	0.77433692175245	10
bin	1.9240188472158	5
bin	3.0737007726791	162
bin	4.2233826981424	3
bin	5.3730646236057	576
bin	6.5227465490691	4
bin	7.6724284745324	2
bin	8.8221103999957	0
bin	9.971792325459	0
bin	11.121474250922	0
bin	12.271156176386	0
bin	13.420838101849	1
bin	14.570520027312	1
bin	15.720201952776	0
bin	16.869883878239	1
bin	18.019565803702	0
bin	19.169247729166	0
bin	20.318929654629	0
bin	21.468611580092	0
bin	22.618293505556	0
bin	23.767975431019	0
bin	24.917657356482	0
bin	26.067339281946	0
scalar car_host_30.hostB.wlan[0].radio 	transmissionState:count 	2276
attr interpolationmode  sample-hold
attr source  transmissionStateChanged
attr title  "Radio transmission state, count"
scalar car_host_30.hostB.wlan[0].radio 	receptionState:count 	3841
attr interpolationmode  sample-hold
attr source  receptionStateChanged
attr title  "Radio reception state, count"
scalar car_host_30.hostB.wlan[0].radio 	radioMode:count 	1140
attr interpolationmode  sample-hold
attr source  radioModeChanged
attr title  "Radio mode, count"
scalar car_host_30.hostC.lo0.lo 	droppedPkBitError:count 	0
attr interpolationmode  none
attr source  dropPkBitError
attr title  "packets dropped/bit error, count"
scalar car_host_30.hostC.lo0.lo 	droppedPkBitError:sum(packetBytes) 	0
attr interpolationmode  none
attr source  dropPkBitError
attr title  "packets dropped/bit error, sum(packetBytes)"
scalar car_host_30.hostC.lo0.lo 	rcvdPkFromHL:count 	0
attr interpolationmode  none
attr source  packetReceivedFromUpper
attr title  "packets received from higher layer, count"
scalar car_host_30.hostC.lo0.lo 	rcvdPkFromHL:sum(packetBytes) 	0
attr interpolationmode  none
attr source  packetReceivedFromUpper
attr title  "packets received from higher layer, sum(packetBytes)"
scalar car_host_30.hostC.lo0.lo 	passedUpPk:count 	0
attr interpolationmode  none
attr source  packetSentToUpper
attr title  "packets passed to higher layer, count"
scalar car_host_30.hostC.lo0.lo 	passedUpPk:sum(packetBytes) 	0
attr interpolationmode  none
attr source  packetSentToUpper
attr title  "packets passed to higher layer, sum(packetBytes)"
scalar car_host_30.hostC.wlan[0].mac 	numRetry 	0
scalar car_host_30.hostC.wlan[0].mac 	numSentWithoutRetry 	0
scalar car_host_30.hostC.wlan[0].mac 	numGivenUp 	0
scalar car_host_30.hostC.wlan[0].mac 	numCollision 	419
scalar car_host_30.hostC.wlan[0].mac 	numSent 	154
scalar car_host_30.hostC.wlan[0].mac 	numReceived 	154
scalar car_host_30.hostC.wlan[0].mac 	numSentBroadcast 	2
scalar car_host_30.hostC.wlan[0].mac 	numReceivedBroadcast 	21
statistic car_host_30.hostC.wlan[0].radio 	symbolErrorRate:histogram
field count 749
field mean 0.00019042122462405
field stddev 0.0010610686592847
field sum 0.14262549724341
field sqrsum 0.00086930721323545
field min 5.8310895456533e-034
field max 0.024747202301574
attr source  symbolErrorRate
attr title  "Symbol error rate, histogram"
bin	-INF	0
bin	-0.012373601150787	0
bin	-0.010723787664015	0
bin	-0.0090739741772438	0
bin	-0.0074241606904722	0
bin	-0.0057743472037006	0
bin	-0.004124533716929	0
bin	-0.0024747202301574	0
bin	-0.0008249067433858	736
bin	0.0008249067433858	10
bin	0.0024747202301574	1
bin	0.004124533716929	0
bin	0.0057743472037006	0
bin	0.0074241606904722	0
bin	0.0090739741772438	0
bin	0.010723787664015	0
bin	0.012373601150787	0
bin	0.014023414637559	1
bin	0.01567322812433	0
bin	0.017323041611102	0
bin	0.018972855097873	0
bin	0.020622668584645	0
bin	0.022272482071417	0
bin	0.023922295558188	1
bin	0.02557210904496	0
bin	0.027221922531731	0
bin	0.028871736018503	0
bin	0.030521549505275	0
bin	0.032171362992046	0
bin	0.033821176478818	0
bin	0.035470989965589	0
bin	0.037120803452361	0
statistic car_host_30.hostC.wlan[0].radio 	bitErrorRate:histogram
field count 749
field mean 0.00019042122462405
field stddev 0.0010610686592847
field sum 0.14262549724341
field sqrsum 0.00086930721323545
field min 5.8310895456533e-034
field max 0.024747202301574
attr source  bitErrorRate
attr title  "Bit error rate, histogram"
bin	-INF	0
bin	-0.012373601150787	0
bin	-0.010723787664015	0
bin	-0.0090739741772438	0
bin	-0.0074241606904722	0
bin	-0.0057743472037006	0
bin	-0.004124533716929	0
bin	-0.0024747202301574	0
bin	-0.0008249067433858	736
bin	0.0008249067433858	10
bin	0.0024747202301574	1
bin	0.004124533716929	0
bin	0.0057743472037006	0
bin	0.0074241606904722	0
bin	0.0090739741772438	0
bin	0.010723787664015	0
bin	0.012373601150787	0
bin	0.014023414637559	1
bin	0.01567322812433	0
bin	0.017323041611102	0
bin	0.018972855097873	0
bin	0.020622668584645	0
bin	0.022272482071417	0
bin	0.023922295558188	1
bin	0.02557210904496	0
bin	0.027221922531731	0
bin	0.028871736018503	0
bin	0.030521549505275	0
bin	0.032171362992046	0
bin	0.033821176478818	0
bin	0.035470989965589	0
bin	0.037120803452361	0
statistic car_host_30.hostC.wlan[0].radio 	packetErrorRate:histogram
field count 749
field mean 0.55309659734393
field stddev 0.3088856814474
field sum 414.26935141061
field sqrsum 300.4979210731
field min 0
field max 0.99999402609483
attr source  packetErrorRate
attr title  "Packet error rate, histogram"
bin	-INF	0
bin	-0.49999701304742	0
bin	-0.43333074464109	0
bin	-0.36666447623477	0
bin	-0.29999820782845	0
bin	-0.23333193942213	0
bin	-0.16666567101581	0
bin	-0.099999402609483	0
bin	-0.033333134203161	173
bin	0.033333134203161	4
bin	0.099999402609483	0
bin	0.16666567101581	0
bin	0.23333193942213	0
bin	0.29999820782845	0
bin	0.36666447623477	1
bin	0.43333074464109	1
bin	0.49999701304742	1
bin	0.56666328145374	0
bin	0.63332954986006	1
bin	0.69999581826638	559
bin	0.7666620866727	1
bin	0.83332835507903	0
bin	0.89999462348535	0
bin	0.96666089189167	8
bin	1.033327160298	0
bin	1.0999934287043	0
bin	1.1666596971106	0
bin	1.233325965517	0
bin	1.2999922339233	0
bin	1.3666585023296	0
bin	1.4333247707359	0
bin	1.4999910391422	0
statistic car_host_30.hostC.wlan[0].radio 	minSNIR:histogram
field count 749
field mean 5.9436361278505
field stddev 5.169690195231
field sum 4451.7834597601
field sqrsum 46450.602147369
field min 0.96462630942618
field max 36.553246209868
attr source  minSNIR
attr title  "Min SNIR, histogram"
bin	-INF	0
bin	-16.829683640795	0
bin	-14.457108980765	0
bin	-12.084534320736	0
bin	-9.7119596607063	0
bin	-7.3393850006769	0
bin	-4.9668103406474	0
bin	-2.594235680618	0
bin	-0.22166102058854	4
bin	2.1509136394409	575
bin	4.5234882994703	6
bin	6.8960629594998	2
bin	9.2686376195292	5
bin	11.641212279559	0
bin	14.013786939588	154
bin	16.386361599618	2
bin	18.758936259647	0
bin	21.131510919676	0
bin	23.504085579706	0
bin	25.876660239735	0
bin	28.249234899765	0
bin	30.621809559794	0
bin	32.994384219824	0
bin	35.366958879853	1
bin	37.739533539882	0
bin	40.112108199912	0
bin	42.484682859941	0
bin	44.857257519971	0
bin	47.22983218	0
bin	49.60240684003	0
bin	51.974981500059	0
bin	54.347556160089	0
scalar car_host_30.hostC.wlan[0].radio 	transmissionState:count 	624
attr interpolationmode  sample-hold
attr source  transmissionStateChanged
attr title  "Radio transmission state, count"
scalar car_host_30.hostC.wlan[0].radio 	receptionState:count 	1839
attr interpolationmode  sample-hold
attr source  receptionStateChanged
attr title  "Radio reception state, count"
scalar car_host_30.hostC.wlan[0].radio 	radioMode:count 	314
attr interpolationmode  sample-hold
attr source  radioModeChanged
attr title  "Radio mode, count"
scalar car_host_30.hostB1.lo0.lo 	droppedPkBitError:count 	0
attr interpolationmode  none
attr source  dropPkBitError
attr title  "packets dropped/bit error, count"
scalar car_host_30.hostB1.lo0.lo 	droppedPkBitError:sum(packetBytes) 	0
attr interpolationmode  none
attr source  dropPkBitError
attr title  "packets dropped/bit error, sum(packetBytes)"
scalar car_host_30.hostB1.lo0.lo 	rcvdPkFromHL:count 	0
attr interpolationmode  none
attr source  packetReceivedFromUpper
attr title  "packets received from higher layer, count"
scalar car_host_30.hostB1.lo0.lo 	rcvdPkFromHL:sum(packetBytes) 	0
attr interpolationmode  none
attr source  packetReceivedFromUpper
attr title  "packets received from higher layer, sum(packetBytes)"
scalar car_host_30.hostB1.lo0.lo 	passedUpPk:count 	0
attr interpolationmode  none
attr source  packetSentToUpper
attr title  "packets passed to higher layer, count"
scalar car_host_30.hostB1.lo0.lo 	passedUpPk:sum(packetBytes) 	0
attr interpolationmode  none
attr source  packetSentToUpper
attr title  "packets passed to higher layer, sum(packetBytes)"
scalar car_host_30.hostB1.wlan[0].mac 	numRetry 	0
scalar car_host_30.hostB1.wlan[0].mac 	numSentWithoutRetry 	0
scalar car_host_30.hostB1.wlan[0].mac 	numGivenUp 	0
scalar car_host_30.hostB1.wlan[0].mac 	numCollision 	11
scalar car_host_30.hostB1.wlan[0].mac 	numSent 	0
scalar car_host_30.hostB1.wlan[0].mac 	numReceived 	0
scalar car_host_30.hostB1.wlan[0].mac 	numSentBroadcast 	4
scalar car_host_30.hostB1.wlan[0].mac 	numReceivedBroadcast 	30
statistic car_host_30.hostB1.wlan[0].radio 	symbolErrorRate:histogram
field count 1779
field mean 0.0001596766918361
field stddev 0.0044827381862368
field sum 0.28406483477642
field sqrsum 0.035774164780287
field min 1.7054564688261e-023
field max 0.17784512817828
attr source  symbolErrorRate
attr title  "Symbol error rate, histogram"
bin	-INF	0
bin	-0.088922564089141	0
bin	-0.077066222210589	0
bin	-0.065209880332037	0
bin	-0.053353538453485	0
bin	-0.041497196574933	0
bin	-0.02964085469638	0
bin	-0.017784512817828	0
bin	-0.0059281709392761	1774
bin	0.0059281709392761	2
bin	0.017784512817828	0
bin	0.02964085469638	1
bin	0.041497196574933	0
bin	0.053353538453485	1
bin	0.065209880332037	0
bin	0.077066222210589	0
bin	0.088922564089141	0
bin	0.10077890596769	0
bin	0.11263524784625	0
bin	0.1244915897248	0
bin	0.13634793160335	0
bin	0.1482042734819	0
bin	0.16006061536045	0
bin	0.17191695723901	1
bin	0.18377329911756	0
bin	0.19562964099611	0
bin	0.20748598287466	0
bin	0.21934232475322	0
bin	0.23119866663177	0
bin	0.24305500851032	0
bin	0.25491135038887	0
bin	0.26676769226742	0
statistic car_host_30.hostB1.wlan[0].radio 	bitErrorRate:histogram
field count 1779
field mean 0.0001596766918361
field stddev 0.0044827381862368
field sum 0.28406483477642
field sqrsum 0.035774164780287
field min 1.7054564688261e-023
field max 0.17784512817828
attr source  bitErrorRate
attr title  "Bit error rate, histogram"
bin	-INF	0
bin	-0.088922564089141	0
bin	-0.077066222210589	0
bin	-0.065209880332037	0
bin	-0.053353538453485	0
bin	-0.041497196574933	0
bin	-0.02964085469638	0
bin	-0.017784512817828	0
bin	-0.0059281709392761	1774
bin	0.0059281709392761	2
bin	0.017784512817828	0
bin	0.02964085469638	1
bin	0.041497196574933	0
bin	0.053353538453485	1
bin	0.065209880332037	0
bin	0.077066222210589	0
bin	0.088922564089141	0
bin	0.10077890596769	0
bin	0.11263524784625	0
bin	0.1244915897248	0
bin	0.13634793160335	0
bin	0.1482042734819	0
bin	0.16006061536045	0
bin	0.17191695723901	1
bin	0.18377329911756	0
bin	0.19562964099611	0
bin	0.20748598287466	0
bin	0.21934232475322	0
bin	0.23119866663177	0
bin	0.24305500851032	0
bin	0.25491135038887	0
bin	0.26676769226742	0
statistic car_host_30.hostB1.wlan[0].radio 	packetErrorRate:histogram
field count 1779
field mean 0.0092548405546109
field stddev 0.053303340038446
field sum 16.464361346653
field sqrsum 5.2041105324507
field min 0
field max 1
attr source  packetErrorRate
attr title  "Packet error rate, histogram"
bin	-INF	0
bin	-0.5	0
bin	-0.43333333333333	0
bin	-0.36666666666667	0
bin	-0.3	0
bin	-0.23333333333333	0
bin	-0.16666666666667	0
bin	-0.1	0
bin	-0.033333333333333	1770
bin	0.033333333333333	3
bin	0.1	0
bin	0.16666666666667	1
bin	0.23333333333333	0
bin	0.3	0
bin	0.36666666666667	0
bin	0.43333333333333	0
bin	0.5	0
bin	0.56666666666667	0
bin	0.63333333333333	0
bin	0.7	0
bin	0.76666666666667	0
bin	0.83333333333333	0
bin	0.9	0
bin	0.96666666666667	5
bin	1.0333333333333	0
bin	1.1	0
bin	1.1666666666667	0
bin	1.2333333333333	0
bin	1.3	0
bin	1.3666666666667	0
bin	1.4333333333333	0
bin	1.5	0
statistic car_host_30.hostB1.wlan[0].radio 	minSNIR:histogram
field count 1779
field mean 14.688587403574
field stddev 7.5129913228487
field sum 26130.996990957
field sqrsum 484186.71190557
field min 0.21326310356681
field max 24.601113362982
attr source  minSNIR
attr title  "Min SNIR, histogram"
bin	-INF	0
bin	-11.980662026141	0
bin	-10.35480534218	0
bin	-8.7289486582188	0
bin	-7.1030919742578	0
bin	-5.4772352902967	0
bin	-3.8513786063357	0
bin	-2.2255219223747	0
bin	-0.5996652384137	3
bin	1.0261914455473	2
bin	2.6520481295083	8
bin	4.2779048134693	584
bin	5.9037614974304	1
bin	7.5296181813914	0
bin	9.1554748653524	1
bin	10.781331549313	3
bin	12.407188233274	4
bin	14.033044917235	594
bin	15.658901601196	0
bin	17.284758285157	0
bin	18.910614969118	0
bin	20.536471653079	0
bin	22.16232833704	577
bin	23.788185021002	2
bin	25.414041704963	0
bin	27.039898388924	0
bin	28.665755072885	0
bin	30.291611756846	0
bin	31.917468440807	0
bin	33.543325124768	0
bin	35.169181808729	0
bin	36.79503849269	0
scalar car_host_30.hostB1.wlan[0].radio 	transmissionState:count 	16
attr interpolationmode  sample-hold
attr source  transmissionStateChanged
attr title  "Radio transmission state, count"
scalar car_host_30.hostB1.wlan[0].radio 	receptionState:count 	3584
attr interpolationmode  sample-hold
attr source  receptionStateChanged
attr title  "Radio reception state, count"
scalar car_host_30.hostB1.wlan[0].radio 	radioMode:count 	10
attr interpolationmode  sample-hold
attr source  radioModeChanged
attr title  "Radio mode, count"
scalar car_host_30.hostB2.lo0.lo 	droppedPkBitError:count 	0
attr interpolationmode  none
attr source  dropPkBitError
attr title  "packets dropped/bit error, count"
scalar car_host_30.hostB2.lo0.lo 	droppedPkBitError:sum(packetBytes) 	0
attr interpolationmode  none
attr source  dropPkBitError
attr title  "packets dropped/bit error, sum(packetBytes)"
scalar car_host_30.hostB2.lo0.lo 	rcvdPkFromHL:count 	0
attr interpolationmode  none
attr source  packetReceivedFromUpper
attr title  "packets received from higher layer, count"
scalar car_host_30.hostB2.lo0.lo 	rcvdPkFromHL:sum(packetBytes) 	0
attr interpolationmode  none
attr source  packetReceivedFromUpper
attr title  "packets received from higher layer, sum(packetBytes)"
scalar car_host_30.hostB2.lo0.lo 	passedUpPk:count 	0
attr interpolationmode  none
attr source  packetSentToUpper
attr title  "packets passed to higher layer, count"
scalar car_host_30.hostB2.lo0.lo 	passedUpPk:sum(packetBytes) 	0
attr interpolationmode  none
attr source  packetSentToUpper
attr title  "packets passed to higher layer, sum(packetBytes)"
scalar car_host_30.hostB2.wlan[0].mac 	numRetry 	0
scalar car_host_30.hostB2.wlan[0].mac 	numSentWithoutRetry 	0
scalar car_host_30.hostB2.wlan[0].mac 	numGivenUp 	0
scalar car_host_30.hostB2.wlan[0].mac 	numCollision 	14
scalar car_host_30.hostB2.wlan[0].mac 	numSent 	0
scalar car_host_30.hostB2.wlan[0].mac 	numReceived 	0
scalar car_host_30.hostB2.wlan[0].mac 	numSentBroadcast 	3
scalar car_host_30.hostB2.wlan[0].mac 	numReceivedBroadcast 	26
statistic car_host_30.hostB2.wlan[0].radio 	symbolErrorRate:histogram
field count 1751
field mean 0.0001103128210003
field stddev 0.00193335937002
field sum 0.19315774957153
field sqrsum 0.0065625950701307
field min 3.3169377509172e-017
field max 0.061521411695994
attr source  symbolErrorRate
attr title  "Symbol error rate, histogram"
bin	-INF	0
bin	-0.030760705847997	0
bin	-0.026659278401597	0
bin	-0.022557850955198	0
bin	-0.018456423508798	0
bin	-0.014354996062399	0
bin	-0.010253568615999	0
bin	-0.0061521411695994	0
bin	-0.0020507137231998	1742
bin	0.0020507137231998	1
bin	0.0061521411695994	1
bin	0.010253568615999	4
bin	0.014354996062399	0
bin	0.018456423508798	0
bin	0.022557850955198	0
bin	0.026659278401597	1
bin	0.030760705847997	0
bin	0.034862133294397	1
bin	0.038963560740796	0
bin	0.043064988187196	0
bin	0.047166415633595	0
bin	0.051267843079995	0
bin	0.055369270526395	0
bin	0.059470697972794	1
bin	0.063572125419194	0
bin	0.067673552865594	0
bin	0.071774980311993	0
bin	0.075876407758393	0
bin	0.079977835204792	0
bin	0.084079262651192	0
bin	0.088180690097592	0
bin	0.092282117543991	0
statistic car_host_30.hostB2.wlan[0].radio 	bitErrorRate:histogram
field count 1751
field mean 0.0001103128210003
field stddev 0.00193335937002
field sum 0.19315774957153
field sqrsum 0.0065625950701307
field min 3.3169377509172e-017
field max 0.061521411695994
attr source  bitErrorRate
attr title  "Bit error rate, histogram"
bin	-INF	0
bin	-0.030760705847997	0
bin	-0.026659278401597	0
bin	-0.022557850955198	0
bin	-0.018456423508798	0
bin	-0.014354996062399	0
bin	-0.010253568615999	0
bin	-0.0061521411695994	0
bin	-0.0020507137231998	1742
bin	0.0020507137231998	1
bin	0.0061521411695994	1
bin	0.010253568615999	4
bin	0.014354996062399	0
bin	0.018456423508798	0
bin	0.022557850955198	0
bin	0.026659278401597	1
bin	0.030760705847997	0
bin	0.034862133294397	1
bin	0.038963560740796	0
bin	0.043064988187196	0
bin	0.047166415633595	0
bin	0.051267843079995	0
bin	0.055369270526395	0
bin	0.059470697972794	1
bin	0.063572125419194	0
bin	0.067673552865594	0
bin	0.071774980311993	0
bin	0.075876407758393	0
bin	0.079977835204792	0
bin	0.084079262651192	0
bin	0.088180690097592	0
bin	0.092282117543991	0
statistic car_host_30.hostB2.wlan[0].radio 	packetErrorRate:histogram
field count 1751
field mean 0.0060868737319583
field stddev 0.073058445680389
field sum 10.658115904659
field sqrsum 9.4055634548924
field min 0
field max 1
attr source  packetErrorRate
attr title  "Packet error rate, histogram"
bin	-INF	0
bin	-0.5	0
bin	-0.43333333333333	0
bin	-0.36666666666667	0
bin	-0.3	0
bin	-0.23333333333333	0
bin	-0.16666666666667	0
bin	-0.1	0
bin	-0.033333333333333	1732
bin	0.033333333333333	5
bin	0.1	3
bin	0.16666666666667	0
bin	0.23333333333333	0
bin	0.3	1
bin	0.36666666666667	0
bin	0.43333333333333	0
bin	0.5	0
bin	0.56666666666667	1
bin	0.63333333333333	0
bin	0.7	0
bin	0.76666666666667	0
bin	0.83333333333333	0
bin	0.9	1
bin	0.96666666666667	8
bin	1.0333333333333	0
bin	1.1	0
bin	1.1666666666667	0
bin	1.2333333333333	0
bin	1.3	0
bin	1.3666666666667	0
bin	1.4333333333333	0
bin	1.5	0
statistic car_host_30.hostB2.wlan[0].radio 	minSNIR:histogram
field count 1751
field mean 12.629407631343
field stddev 4.1642867989987
field sum 22114.092762481
field sqrsum 309635.13984724
field min 0.5945386404583
field max 17.444724840971
attr source  minSNIR
attr title  "Min SNIR, histogram"
bin	-INF	0
bin	-7.8305544597979	0
bin	-6.707208713097	0
bin	-5.5838629663962	0
bin	-4.4605172196954	0
bin	-3.3371714729946	0
bin	-2.2138257262938	0
bin	-1.0904799795929	0
bin	0.032865767107888	3
bin	1.1562115138087	7
bin	2.2795572605095	9
bin	3.4029030072104	5
bin	4.5262487539112	0
bin	5.649594500612	0
bin	6.7729402473128	585
bin	7.8962859940136	0
bin	9.0196317407145	1
bin	10.142977487415	3
bin	11.266323234116	0
bin	12.389668980817	575
bin	13.513014727518	1
bin	14.636360474219	0
bin	15.759706220919	0
bin	16.88305196762	562
bin	18.006397714321	0
bin	19.129743461022	0
bin	20.253089207723	0
bin	21.376434954424	0
bin	22.499780701124	0
bin	23.623126447825	0
bin	24.746472194526	0
bin	25.869817941227	0
scalar car_host_30.hostB2.wlan[0].radio 	transmissionState:count 	12
attr interpolationmode  sample-hold
attr source  transmissionStateChanged
attr title  "Radio transmission state, count"
scalar car_host_30.hostB2.wlan[0].radio 	receptionState:count 	3540
attr interpolationmode  sample-hold
attr source  receptionStateChanged
attr title  "Radio reception state, count"
scalar car_host_30.hostB2.wlan[0].radio 	radioMode:count 	8
attr interpolationmode  sample-hold
attr source  radioModeChanged
attr title  "Radio mode, count"
scalar car_host_30.hostB3.lo0.lo 	droppedPkBitError:count 	0
attr interpolationmode  none
attr source  dropPkBitError
attr title  "packets dropped/bit error, count"
scalar car_host_30.hostB3.lo0.lo 	droppedPkBitError:sum(packetBytes) 	0
attr interpolationmode  none
attr source  dropPkBitError
attr title  "packets dropped/bit error, sum(packetBytes)"
scalar car_host_30.hostB3.lo0.lo 	rcvdPkFromHL:count 	0
attr interpolationmode  none
attr source  packetReceivedFromUpper
attr title  "packets received from higher layer, count"
scalar car_host_30.hostB3.lo0.lo 	rcvdPkFromHL:sum(packetBytes) 	0
attr interpolationmode  none
attr source  packetReceivedFromUpper
attr title  "packets received from higher layer, sum(packetBytes)"
scalar car_host_30.hostB3.lo0.lo 	passedUpPk:count 	0
attr interpolationmode  none
attr source  packetSentToUpper
attr title  "packets passed to higher layer, count"
scalar car_host_30.hostB3.lo0.lo 	passedUpPk:sum(packetBytes) 	0
attr interpolationmode  none
attr source  packetSentToUpper
attr title  "packets passed to higher layer, sum(packetBytes)"
scalar car_host_30.hostB3.wlan[0].mac 	numRetry 	0
scalar car_host_30.hostB3.wlan[0].mac 	numSentWithoutRetry 	0
scalar car_host_30.hostB3.wlan[0].mac 	numGivenUp 	0
scalar car_host_30.hostB3.wlan[0].mac 	numCollision 	30
scalar car_host_30.hostB3.wlan[0].mac 	numSent 	573
scalar car_host_30.hostB3.wlan[0].mac 	numReceived 	573
scalar car_host_30.hostB3.wlan[0].mac 	numSentBroadcast 	3
scalar car_host_30.hostB3.wlan[0].mac 	numReceivedBroadcast 	26
statistic car_host_30.hostB3.wlan[0].radio 	symbolErrorRate:histogram
field count 1179
field mean 0.00059755295158072
field stddev 0.0077231509318706
field sum 0.70451492991367
field sqrsum 0.070685222028586
field min 5.1885701769843e-021
field max 0.1800393263855
attr source  symbolErrorRate
attr title  "Symbol error rate, histogram"
bin	-INF	0
bin	-0.090019663192749	0
bin	-0.078017041433716	0
bin	-0.066014419674683	0
bin	-0.05401179791565	0
bin	-0.042009176156616	0
bin	-0.030006554397583	0
bin	-0.01800393263855	0
bin	-0.0060013108795166	1170
bin	0.0060013108795166	1
bin	0.01800393263855	1
bin	0.030006554397583	0
bin	0.042009176156616	1
bin	0.05401179791565	1
bin	0.066014419674683	1
bin	0.078017041433716	1
bin	0.090019663192749	0
bin	0.10202228495178	2
bin	0.11402490671082	0
bin	0.12602752846985	0
bin	0.13803015022888	0
bin	0.15003277198792	0
bin	0.16203539374695	0
bin	0.17403801550598	1
bin	0.18604063726502	0
bin	0.19804325902405	0
bin	0.21004588078308	0
bin	0.22204850254211	0
bin	0.23405112430115	0
bin	0.24605374606018	0
bin	0.25805636781921	0
bin	0.27005898957825	0
statistic car_host_30.hostB3.wlan[0].radio 	bitErrorRate:histogram
field count 1179
field mean 0.00059755295158072
field stddev 0.0077231509318706
field sum 0.70451492991367
field sqrsum 0.070685222028586
field min 5.1885701769843e-021
field max 0.1800393263855
attr source  bitErrorRate
attr title  "Bit error rate, histogram"
bin	-INF	0
bin	-0.090019663192749	0
bin	-0.078017041433716	0
bin	-0.066014419674683	0
bin	-0.05401179791565	0
bin	-0.042009176156616	0
bin	-0.030006554397583	0
bin	-0.01800393263855	0
bin	-0.0060013108795166	1170
bin	0.0060013108795166	1
bin	0.01800393263855	1
bin	0.030006554397583	0
bin	0.042009176156616	1
bin	0.05401179791565	1
bin	0.066014419674683	1
bin	0.078017041433716	1
bin	0.090019663192749	0
bin	0.10202228495178	2
bin	0.11402490671082	0
bin	0.12602752846985	0
bin	0.13803015022888	0
bin	0.15003277198792	0
bin	0.16203539374695	0
bin	0.17403801550598	1
bin	0.18604063726502	0
bin	0.19804325902405	0
bin	0.21004588078308	0
bin	0.22204850254211	0
bin	0.23405112430115	0
bin	0.24605374606018	0
bin	0.25805636781921	0
bin	0.27005898957825	0
statistic car_host_30.hostB3.wlan[0].radio 	packetErrorRate:histogram
field count 1179
field mean 0.019343786939249
field stddev 0.12026268689413
field sum 22.806324801374
field sqrsum 17.478708813722
field min 0
field max 1
attr source  packetErrorRate
attr title  "Packet error rate, histogram"
bin	-INF	0
bin	-0.5	0
bin	-0.43333333333333	0
bin	-0.36666666666667	0
bin	-0.3	0
bin	-0.23333333333333	0
bin	-0.16666666666667	0
bin	-0.1	0
bin	-0.033333333333333	1154
bin	0.033333333333333	5
bin	0.1	0
bin	0.16666666666667	0
bin	0.23333333333333	1
bin	0.3	0
bin	0.36666666666667	0
bin	0.43333333333333	0
bin	0.5	0
bin	0.56666666666667	1
bin	0.63333333333333	0
bin	0.7	1
bin	0.76666666666667	1
bin	0.83333333333333	0
bin	0.9	1
bin	0.96666666666667	15
bin	1.0333333333333	0
bin	1.1	0
bin	1.1666666666667	0
bin	1.2333333333333	0
bin	1.3	0
bin	1.3666666666667	0
bin	1.4333333333333	0
bin	1.5	0
statistic car_host_30.hostB3.wlan[0].radio 	minSNIR:histogram
field count 1179
field mean 11.640264378288
field stddev 6.2068066205902
field sum 13723.871702001
field sqrsum 205131.29515012
field min 0.20940472758338
field max 21.772128759437
attr source  minSNIR
attr title  "Min SNIR, histogram"
bin	-INF	0
bin	-10.571957288343	0
bin	-9.1344423528865	0
bin	-7.6969274174296	0
bin	-6.2594124819727	0
bin	-4.8218975465158	0
bin	-3.3843826110589	0
bin	-1.946867675602	0
bin	-0.50935274014507	7
bin	0.92816219531184	12
bin	2.3656771307687	6
bin	3.8031920662256	2
bin	5.2407070016826	566
bin	6.6782219371395	0
bin	8.1157368725964	3
bin	9.5532518080533	1
bin	10.99076674351	0
bin	12.428281678967	3
bin	13.865796614424	0
bin	15.303311549881	0
bin	16.740826485338	577
bin	18.178341420795	0
bin	19.615856356252	1
bin	21.053371291709	1
bin	22.490886227165	0
bin	23.928401162622	0
bin	25.365916098079	0
bin	26.803431033536	0
bin	28.240945968993	0
bin	29.67846090445	0
bin	31.115975839907	0
bin	32.553490775364	0
scalar car_host_30.hostB3.wlan[0].radio 	transmissionState:count 	2304
attr interpolationmode  sample-hold
attr source  transmissionStateChanged
attr title  "Radio transmission state, count"
scalar car_host_30.hostB3.wlan[0].radio 	receptionState:count 	4724
attr interpolationmode  sample-hold
attr source  receptionStateChanged
attr title  "Radio reception state, count"
scalar car_host_30.hostB3.wlan[0].radio 	radioMode:count 	1154
attr interpolationmode  sample-hold
attr source  radioModeChanged
attr title  "Radio mode, count"
scalar car_host_30.hostB4.lo0.lo 	droppedPkBitError:count 	0
attr interpolationmode  none
attr source  dropPkBitError
attr title  "packets dropped/bit error, count"
scalar car_host_30.hostB4.lo0.lo 	droppedPkBitError:sum(packetBytes) 	0
attr interpolationmode  none
attr source  dropPkBitError
attr title  "packets dropped/bit error, sum(packetBytes)"
scalar car_host_30.hostB4.lo0.lo 	rcvdPkFromHL:count 	0
attr interpolationmode  none
attr source  packetReceivedFromUpper
attr title  "packets received from higher layer, count"
scalar car_host_30.hostB4.lo0.lo 	rcvdPkFromHL:sum(packetBytes) 	0
attr interpolationmode  none
attr source  packetReceivedFromUpper
attr title  "packets received from higher layer, sum(packetBytes)"
scalar car_host_30.hostB4.lo0.lo 	passedUpPk:count 	0
attr interpolationmode  none
attr source  packetSentToUpper
attr title  "packets passed to higher layer, count"
scalar car_host_30.hostB4.lo0.lo 	passedUpPk:sum(packetBytes) 	0
attr interpolationmode  none
attr source  packetSentToUpper
attr title  "packets passed to higher layer, sum(packetBytes)"
scalar car_host_30.hostB4.wlan[0].mac 	numRetry 	0
scalar car_host_30.hostB4.wlan[0].mac 	numSentWithoutRetry 	0
scalar car_host_30.hostB4.wlan[0].mac 	numGivenUp 	0
scalar car_host_30.hostB4.wlan[0].mac 	numCollision 	32
scalar car_host_30.hostB4.wlan[0].mac 	numSent 	574
scalar car_host_30.hostB4.wlan[0].mac 	numReceived 	574
scalar car_host_30.hostB4.wlan[0].mac 	numSentBroadcast 	4
scalar car_host_30.hostB4.wlan[0].mac 	numReceivedBroadcast 	31
statistic car_host_30.hostB4.wlan[0].radio 	symbolErrorRate:histogram
field count 1208
field mean 0.00020576175784377
field stddev 0.0031142408212271
field sum 0.24856020347527
field sqrsum 0.011757228726762
field min 2.9544627259761e-033
field max 0.099860179515728
attr source  symbolErrorRate
attr title  "Symbol error rate, histogram"
bin	-INF	0
bin	-0.049930089757864	0
bin	-0.043272744456816	0
bin	-0.036615399155767	0
bin	-0.029958053854718	0
bin	-0.02330070855367	0
bin	-0.016643363252621	0
bin	-0.0099860179515728	0
bin	-0.0033286726505243	1195
bin	0.0033286726505243	3
bin	0.0099860179515728	9
bin	0.016643363252621	0
bin	0.02330070855367	0
bin	0.029958053854718	0
bin	0.036615399155767	0
bin	0.043272744456816	0
bin	0.049930089757864	0
bin	0.056587435058913	0
bin	0.063244780359961	0
bin	0.06990212566101	0
bin	0.076559470962058	0
bin	0.083216816263107	0
bin	0.089874161564155	0
bin	0.096531506865204	1
bin	0.10318885216625	0
bin	0.1098461974673	0
bin	0.11650354276835	0
bin	0.1231608880694	0
bin	0.12981823337045	0
bin	0.1364755786715	0
bin	0.14313292397254	0
bin	0.14979026927359	0
statistic car_host_30.hostB4.wlan[0].radio 	bitErrorRate:histogram
field count 1208
field mean 0.00020576175784377
field stddev 0.0031142408212271
field sum 0.24856020347527
field sqrsum 0.011757228726762
field min 2.9544627259761e-033
field max 0.099860179515728
attr source  bitErrorRate
attr title  "Bit error rate, histogram"
bin	-INF	0
bin	-0.049930089757864	0
bin	-0.043272744456816	0
bin	-0.036615399155767	0
bin	-0.029958053854718	0
bin	-0.02330070855367	0
bin	-0.016643363252621	0
bin	-0.0099860179515728	0
bin	-0.0033286726505243	1195
bin	0.0033286726505243	3
bin	0.0099860179515728	9
bin	0.016643363252621	0
bin	0.02330070855367	0
bin	0.029958053854718	0
bin	0.036615399155767	0
bin	0.043272744456816	0
bin	0.049930089757864	0
bin	0.056587435058913	0
bin	0.063244780359961	0
bin	0.06990212566101	0
bin	0.076559470962058	0
bin	0.083216816263107	0
bin	0.089874161564155	0
bin	0.096531506865204	1
bin	0.10318885216625	0
bin	0.1098461974673	0
bin	0.11650354276835	0
bin	0.1231608880694	0
bin	0.12981823337045	0
bin	0.1364755786715	0
bin	0.14313292397254	0
bin	0.14979026927359	0
statistic car_host_30.hostB4.wlan[0].radio 	packetErrorRate:histogram
field count 1208
field mean 0.034593468165488
field stddev 0.10801168331578
field sum 41.78890954391
field sqrsum 15.527117457358
field min 0
field max 1
attr source  packetErrorRate
attr title  "Packet error rate, histogram"
bin	-INF	0
bin	-0.5	0
bin	-0.43333333333333	0
bin	-0.36666666666667	0
bin	-0.3	0
bin	-0.23333333333333	0
bin	-0.16666666666667	0
bin	-0.1	0
bin	-0.033333333333333	602
bin	0.033333333333333	591
bin	0.1	0
bin	0.16666666666667	0
bin	0.23333333333333	0
bin	0.3	0
bin	0.36666666666667	0
bin	0.43333333333333	0
bin	0.5	0
bin	0.56666666666667	0
bin	0.63333333333333	0
bin	0.7	1
bin	0.76666666666667	0
bin	0.83333333333333	0
bin	0.9	1
bin	0.96666666666667	13
bin	1.0333333333333	0
bin	1.1	0
bin	1.1666666666667	0
bin	1.2333333333333	0
bin	1.3	0
bin	1.3666666666667	0
bin	1.4333333333333	0
bin	1.5	0
statistic car_host_30.hostB4.wlan[0].radio 	minSNIR:histogram
field count 1208
field mean 11.145794672025
field stddev 6.6941281913683
field sum 13464.119963806
field sqrsum 204155.61871276
field min 0.41110453306927
field max 35.747395782649
attr source  minSNIR
attr title  "Min SNIR, histogram"
bin	-INF	0
bin	-17.257041091721	0
bin	-14.901288341749	0
bin	-12.545535591777	0
bin	-10.189782841805	0
bin	-7.8340300918328	0
bin	-5.4782773418608	0
bin	-3.1225245918887	0
bin	-0.76677184191674	13
bin	1.5889809080553	7
bin	3.9447336580273	598
bin	6.3004864079993	6
bin	8.6562391579713	1
bin	11.011991907943	0
bin	13.367744657915	3
bin	15.723497407887	575
bin	18.079250157859	0
bin	20.435002907831	0
bin	22.790755657803	2
bin	25.146508407775	0
bin	27.502261157747	0
bin	29.858013907719	0
bin	32.213766657691	0
bin	34.569519407663	3
bin	36.925272157635	0
bin	39.281024907607	0
bin	41.636777657579	0
bin	43.992530407551	0
bin	46.348283157523	0
bin	48.704035907495	0
bin	51.059788657467	0
bin	53.41554140744	0
scalar car_host_30.hostB4.wlan[0].radio 	transmissionState:count 	2312
attr interpolationmode  sample-hold
attr source  transmissionStateChanged
attr title  "Radio transmission state, count"
scalar car_host_30.hostB4.wlan[0].radio 	receptionState:count 	4719
attr interpolationmode  sample-hold
attr source  receptionStateChanged
attr title  "Radio reception state, count"
scalar car_host_30.hostB4.wlan[0].radio 	radioMode:count 	1158
attr interpolationmode  sample-hold
attr source  radioModeChanged
attr title  "Radio mode, count"
scalar car_host_30.hostC1.lo0.lo 	droppedPkBitError:count 	0
attr interpolationmode  none
attr source  dropPkBitError
attr title  "packets dropped/bit error, count"
scalar car_host_30.hostC1.lo0.lo 	droppedPkBitError:sum(packetBytes) 	0
attr interpolationmode  none
attr source  dropPkBitError
attr title  "packets dropped/bit error, sum(packetBytes)"
scalar car_host_30.hostC1.lo0.lo 	rcvdPkFromHL:count 	0
attr interpolationmode  none
attr source  packetReceivedFromUpper
attr title  "packets received from higher layer, count"
scalar car_host_30.hostC1.lo0.lo 	rcvdPkFromHL:sum(packetBytes) 	0
attr interpolationmode  none
attr source  packetReceivedFromUpper
attr title  "packets received from higher layer, sum(packetBytes)"
scalar car_host_30.hostC1.lo0.lo 	passedUpPk:count 	0
attr interpolationmode  none
attr source  packetSentToUpper
attr title  "packets passed to higher layer, count"
scalar car_host_30.hostC1.lo0.lo 	passedUpPk:sum(packetBytes) 	0
attr interpolationmode  none
attr source  packetSentToUpper
attr title  "packets passed to higher layer, sum(packetBytes)"
scalar car_host_30.hostC1.wlan[0].mac 	numRetry 	0
scalar car_host_30.hostC1.wlan[0].mac 	numSentWithoutRetry 	0
scalar car_host_30.hostC1.wlan[0].mac 	numGivenUp 	0
scalar car_host_30.hostC1.wlan[0].mac 	numCollision 	5
scalar car_host_30.hostC1.wlan[0].mac 	numSent 	0
scalar car_host_30.hostC1.wlan[0].mac 	numReceived 	0
scalar car_host_30.hostC1.wlan[0].mac 	numSentBroadcast 	2
scalar car_host_30.hostC1.wlan[0].mac 	numReceivedBroadcast 	12
statistic car_host_30.hostC1.wlan[0].radio 	symbolErrorRate:histogram
field count 323
field mean 2.8715577675095e-005
field stddev 0.00032698636601664
field sum 0.0092751315890556
field sqrsum 3.4694607668159e-005
field min 1.9163600833463e-018
field max 0.0050571615333371
attr source  symbolErrorRate
attr title  "Symbol error rate, histogram"
bin	-INF	0
bin	-0.0025285807666685	0
bin	-0.0021914366644461	0
bin	-0.0018542925622236	0
bin	-0.0015171484600011	0
bin	-0.0011800043577787	0
bin	-0.00084286025555618	0
bin	-0.00050571615333371	0
bin	-0.00016857205111123	318
bin	0.00016857205111124	3
bin	0.00050571615333371	0
bin	0.00084286025555618	0
bin	0.0011800043577787	0
bin	0.0015171484600011	0
bin	0.0018542925622236	0
bin	0.0021914366644461	0
bin	0.0025285807666685	0
bin	0.002865724868891	1
bin	0.0032028689711135	0
bin	0.003540013073336	0
bin	0.0038771571755584	0
bin	0.0042143012777809	0
bin	0.0045514453800034	0
bin	0.0048885894822259	1
bin	0.0052257335844483	0
bin	0.0055628776866708	0
bin	0.0059000217888933	0
bin	0.0062371658911157	0
bin	0.0065743099933382	0
bin	0.0069114540955607	0
bin	0.0072485981977832	0
bin	0.0075857423000056	0
statistic car_host_30.hostC1.wlan[0].radio 	bitErrorRate:histogram
field count 323
field mean 2.8715577675095e-005
field stddev 0.00032698636601664
field sum 0.0092751315890556
field sqrsum 3.4694607668159e-005
field min 1.9163600833463e-018
field max 0.0050571615333371
attr source  bitErrorRate
attr title  "Bit error rate, histogram"
bin	-INF	0
bin	-0.0025285807666685	0
bin	-0.0021914366644461	0
bin	-0.0018542925622236	0
bin	-0.0015171484600011	0
bin	-0.0011800043577787	0
bin	-0.00084286025555618	0
bin	-0.00050571615333371	0
bin	-0.00016857205111123	318
bin	0.00016857205111124	3
bin	0.00050571615333371	0
bin	0.00084286025555618	0
bin	0.0011800043577787	0
bin	0.0015171484600011	0
bin	0.0018542925622236	0
bin	0.0021914366644461	0
bin	0.0025285807666685	0
bin	0.002865724868891	1
bin	0.0032028689711135	0
bin	0.003540013073336	0
bin	0.0038771571755584	0
bin	0.0042143012777809	0
bin	0.0045514453800034	0
bin	0.0048885894822259	1
bin	0.0052257335844483	0
bin	0.0055628776866708	0
bin	0.0059000217888933	0
bin	0.0062371658911157	0
bin	0.0065743099933382	0
bin	0.0069114540955607	0
bin	0.0072485981977832	0
bin	0.0075857423000056	0
statistic car_host_30.hostC1.wlan[0].radio 	packetErrorRate:histogram
field count 323
field mean 0.0097977577048018
field stddev 0.066577426179366
field sum 3.164675738651
field sqrsum 1.458289009989
field min 0
field max 0.91227920394205
attr source  packetErrorRate
attr title  "Packet error rate, histogram"
bin	-INF	0
bin	-0.45613960197103	0
bin	-0.39532098837489	0
bin	-0.33450237477875	0
bin	-0.27368376118262	0
bin	-0.21286514758648	0
bin	-0.15204653399034	0
bin	-0.091227920394205	0
bin	-0.030409306798068	317
bin	0.030409306798068	2
bin	0.091227920394205	0
bin	0.15204653399034	2
bin	0.21286514758648	0
bin	0.27368376118262	0
bin	0.33450237477875	0
bin	0.39532098837489	0
bin	0.45613960197103	0
bin	0.51695821556716	0
bin	0.5777768291633	0
bin	0.63859544275944	0
bin	0.69941405635557	1
bin	0.76023266995171	0
bin	0.82105128354785	0
bin	0.88186989714398	1
bin	0.94268851074012	0
bin	1.0035071243363	0
bin	1.0643257379324	0
bin	1.1251443515285	0
bin	1.1859629651247	0
bin	1.2467815787208	0
bin	1.3076001923169	0
bin	1.3684188059131	0
statistic car_host_30.hostC1.wlan[0].radio 	minSNIR:histogram
field count 323
field mean 8.392180009898
field stddev 2.8931951940386
field sum 2710.6741431971
field sqrsum 25443.791612606
field min 1.6536624317637
field max 18.851437764729
attr source  minSNIR
attr title  "Min SNIR, histogram"
bin	-INF	0
bin	-6.9452252347191	0
bin	-5.798706879188	0
bin	-4.652188523657	0
bin	-3.5056701681259	0
bin	-2.3591518125949	0
bin	-1.2126334570639	0
bin	-0.066115101532817	0
bin	1.0804032539982	2
bin	2.2269216095293	3
bin	3.3734399650603	3
bin	4.5199583205913	1
bin	5.6664766761224	157
bin	6.8129950316534	0
bin	7.9595133871845	2
bin	9.1060317427155	0
bin	10.252550098247	154
bin	11.399068453778	0
bin	12.545586809309	0
bin	13.69210516484	0
bin	14.838623520371	0
bin	15.985141875902	0
bin	17.131660231433	0
bin	18.278178586964	1
bin	19.424696942495	0
bin	20.571215298026	0
bin	21.717733653557	0
bin	22.864252009088	0
bin	24.010770364619	0
bin	25.15728872015	0
bin	26.303807075681	0
bin	27.450325431212	0
scalar car_host_30.hostC1.wlan[0].radio 	transmissionState:count 	8
attr interpolationmode  sample-hold
attr source  transmissionStateChanged
attr title  "Radio transmission state, count"
scalar car_host_30.hostC1.wlan[0].radio 	receptionState:count 	675
attr interpolationmode  sample-hold
attr source  receptionStateChanged
attr title  "Radio reception state, count"
scalar car_host_30.hostC1.wlan[0].radio 	radioMode:count 	6
attr interpolationmode  sample-hold
attr source  radioModeChanged
attr title  "Radio mode, count"
scalar car_host_30.hostC2.lo0.lo 	droppedPkBitError:count 	0
attr interpolationmode  none
attr source  dropPkBitError
attr title  "packets dropped/bit error, count"
scalar car_host_30.hostC2.lo0.lo 	droppedPkBitError:sum(packetBytes) 	0
attr interpolationmode  none
attr source  dropPkBitError
attr title  "packets dropped/bit error, sum(packetBytes)"
scalar car_host_30.hostC2.lo0.lo 	rcvdPkFromHL:count 	0
attr interpolationmode  none
attr source  packetReceivedFromUpper
attr title  "packets received from higher layer, count"
scalar car_host_30.hostC2.lo0.lo 	rcvdPkFromHL:sum(packetBytes) 	0
attr interpolationmode  none
attr source  packetReceivedFromUpper
attr title  "packets received from higher layer, sum(packetBytes)"
scalar car_host_30.hostC2.lo0.lo 	passedUpPk:count 	0
attr interpolationmode  none
attr source  packetSentToUpper
attr title  "packets passed to higher layer, count"
scalar car_host_30.hostC2.lo0.lo 	passedUpPk:sum(packetBytes) 	0
attr interpolationmode  none
attr source  packetSentToUpper
attr title  "packets passed to higher layer, sum(packetBytes)"
scalar car_host_30.hostC2.wlan[0].mac 	numRetry 	0
scalar car_host_30.hostC2.wlan[0].mac 	numSentWithoutRetry 	0
scalar car_host_30.hostC2.wlan[0].mac 	numGivenUp 	0
scalar car_host_30.hostC2.wlan[0].mac 	numCollision 	436
scalar car_host_30.hostC2.wlan[0].mac 	numSent 	0
scalar car_host_30.hostC2.wlan[0].mac 	numReceived 	0
scalar car_host_30.hostC2.wlan[0].mac 	numSentBroadcast 	3
scalar car_host_30.hostC2.wlan[0].mac 	numReceivedBroadcast 	23
statistic car_host_30.hostC2.wlan[0].radio 	symbolErrorRate:histogram
field count 1331
field mean 0.00037505935517772
field stddev 0.0045847740954415
field sum 0.49920400174155
field sqrsum 0.028144035294284
field min 4.8988759742578e-020
field max 0.11718180631088
attr source  symbolErrorRate
attr title  "Symbol error rate, histogram"
bin	-INF	0
bin	-0.058590903155442	0
bin	-0.050778782734716	0
bin	-0.042966662313991	0
bin	-0.035154541893265	0
bin	-0.02734242147254	0
bin	-0.019530301051814	0
bin	-0.011718180631088	0
bin	-0.0039060602103628	1319
bin	0.0039060602103628	2
bin	0.011718180631088	6
bin	0.019530301051814	0
bin	0.02734242147254	1
bin	0.035154541893265	0
bin	0.042966662313991	0
bin	0.050778782734716	0
bin	0.058590903155442	1
bin	0.066403023576167	0
bin	0.074215143996893	0
bin	0.082027264417619	0
bin	0.089839384838344	1
bin	0.09765150525907	0
bin	0.1054636256798	0
bin	0.11327574610052	1
bin	0.12108786652125	0
bin	0.12889998694197	0
bin	0.1367121073627	0
bin	0.14452422778342	0
bin	0.15233634820415	0
bin	0.16014846862487	0
bin	0.1679605890456	0
bin	0.17577270946633	0
statistic car_host_30.hostC2.wlan[0].radio 	bitErrorRate:histogram
field count 1331
field mean 0.00037505935517772
field stddev 0.0045847740954415
field sum 0.49920400174155
field sqrsum 0.028144035294284
field min 4.8988759742578e-020
field max 0.11718180631088
attr source  bitErrorRate
attr title  "Bit error rate, histogram"
bin	-INF	0
bin	-0.058590903155442	0
bin	-0.050778782734716	0
bin	-0.042966662313991	0
bin	-0.035154541893265	0
bin	-0.02734242147254	0
bin	-0.019530301051814	0
bin	-0.011718180631088	0
bin	-0.0039060602103628	1319
bin	0.0039060602103628	2
bin	0.011718180631088	6
bin	0.019530301051814	0
bin	0.02734242147254	1
bin	0.035154541893265	0
bin	0.042966662313991	0
bin	0.050778782734716	0
bin	0.058590903155442	1
bin	0.066403023576167	0
bin	0.074215143996893	0
bin	0.082027264417619	0
bin	0.089839384838344	1
bin	0.09765150525907	0
bin	0.1054636256798	0
bin	0.11327574610052	1
bin	0.12108786652125	0
bin	0.12889998694197	0
bin	0.1367121073627	0
bin	0.14452422778342	0
bin	0.15233634820415	0
bin	0.16014846862487	0
bin	0.1679605890456	0
bin	0.17577270946633	0
statistic car_host_30.hostC2.wlan[0].radio 	packetErrorRate:histogram
field count 1331
field mean 0.3312469988342
field stddev 0.37326507646483
field sum 440.88975544832
field sqrsum 331.34807532903
field min 0
field max 1
attr source  packetErrorRate
attr title  "Packet error rate, histogram"
bin	-INF	0
bin	-0.5	0
bin	-0.43333333333333	0
bin	-0.36666666666667	0
bin	-0.3	0
bin	-0.23333333333333	0
bin	-0.16666666666667	0
bin	-0.1	0
bin	-0.033333333333333	738
bin	0.033333333333333	6
bin	0.1	0
bin	0.16666666666667	0
bin	0.23333333333333	0
bin	0.3	0
bin	0.36666666666667	1
bin	0.43333333333333	1
bin	0.5	1
bin	0.56666666666667	0
bin	0.63333333333333	0
bin	0.7	572
bin	0.76666666666667	0
bin	0.83333333333333	1
bin	0.9	1
bin	0.96666666666667	10
bin	1.0333333333333	0
bin	1.1	0
bin	1.1666666666667	0
bin	1.2333333333333	0
bin	1.3	0
bin	1.3666666666667	0
bin	1.4333333333333	0
bin	1.5	0
statistic car_host_30.hostC2.wlan[0].radio 	minSNIR:histogram
field count 1331
field mean 8.3722241280944
field stddev 5.0900862631598
field sum 11143.430314494
field sqrsum 127754.23711007
field min 0.35354517286486
field max 20.662350147749
attr source  minSNIR
attr title  "Min SNIR, histogram"
bin	-INF	0
bin	-9.800857314577	0
bin	-8.4469369829181	0
bin	-7.0930166512591	0
bin	-5.7390963196002	0
bin	-4.3851759879413	0
bin	-3.0312556562824	0
bin	-1.6773353246235	0
bin	-0.32341499296459	4
bin	1.0305053386943	12
bin	2.3844256703532	577
bin	3.7383460020121	7
bin	5.092266333671	1
bin	6.44618666533	3
bin	7.8001069969889	163
bin	9.1540273286478	0
bin	10.507947660307	1
bin	11.861867991966	0
bin	13.215788323625	562
bin	14.569708655283	0
bin	15.923628986942	0
bin	17.277549318601	0
bin	18.63146965026	0
bin	19.985389981919	1
bin	21.339310313578	0
bin	22.693230645237	0
bin	24.047150976896	0
bin	25.401071308555	0
bin	26.754991640214	0
bin	28.108911971873	0
bin	29.462832303531	0
bin	30.81675263519	0
scalar car_host_30.hostC2.wlan[0].radio 	transmissionState:count 	12
attr interpolationmode  sample-hold
attr source  transmissionStateChanged
attr title  "Radio transmission state, count"
scalar car_host_30.hostC2.wlan[0].radio 	receptionState:count 	2993
attr interpolationmode  sample-hold
attr source  receptionStateChanged
attr title  "Radio reception state, count"
scalar car_host_30.hostC2.wlan[0].radio 	radioMode:count 	8
attr interpolationmode  sample-hold
attr source  radioModeChanged
attr title  "Radio mode, count"
scalar car_host_30.hostC3.lo0.lo 	droppedPkBitError:count 	0
attr interpolationmode  none
attr source  dropPkBitError
attr title  "packets dropped/bit error, count"
scalar car_host_30.hostC3.lo0.lo 	droppedPkBitError:sum(packetBytes) 	0
attr interpolationmode  none
attr source  dropPkBitError
attr title  "packets dropped/bit error, sum(packetBytes)"
scalar car_host_30.hostC3.lo0.lo 	rcvdPkFromHL:count 	0
attr interpolationmode  none
attr source  packetReceivedFromUpper
attr title  "packets received from higher layer, count"
scalar car_host_30.hostC3.lo0.lo 	rcvdPkFromHL:sum(packetBytes) 	0
attr interpolationmode  none
attr source  packetReceivedFromUpper
attr title  "packets received from higher layer, sum(packetBytes)"
scalar car_host_30.hostC3.lo0.lo 	passedUpPk:count 	0
attr interpolationmode  none
attr source  packetSentToUpper
attr title  "packets passed to higher layer, count"
scalar car_host_30.hostC3.lo0.lo 	passedUpPk:sum(packetBytes) 	0
attr interpolationmode  none
attr source  packetSentToUpper
attr title  "packets passed to higher layer, sum(packetBytes)"
scalar car_host_30.hostC3.wlan[0].mac 	numRetry 	0
scalar car_host_30.hostC3.wlan[0].mac 	numSentWithoutRetry 	0
scalar car_host_30.hostC3.wlan[0].mac 	numGivenUp 	0
scalar car_host_30.hostC3.wlan[0].mac 	numCollision 	8
scalar car_host_30.hostC3.wlan[0].mac 	numSent 	0
scalar car_host_30.hostC3.wlan[0].mac 	numReceived 	0
scalar car_host_30.hostC3.wlan[0].mac 	numSentBroadcast 	2
scalar car_host_30.hostC3.wlan[0].mac 	numReceivedBroadcast 	19
statistic car_host_30.hostC3.wlan[0].radio 	symbolErrorRate:histogram
field count 339
field mean 0.00017810872327653
field stddev 0.0013639656560966
field sum 0.060378857190744
field sqrsum 0.00063956998228889
field min 5.8310895456533e-034
field max 0.018385062244426
attr source  symbolErrorRate
attr title  "Symbol error rate, histogram"
bin	-INF	0
bin	-0.009192531122213	0
bin	-0.0079668603059179	0
bin	-0.0067411894896229	0
bin	-0.0055155186733278	0
bin	-0.0042898478570327	0
bin	-0.0030641770407377	0
bin	-0.0018385062244426	0
bin	-0.00061283540814753	331
bin	0.00061283540814753	1
bin	0.0018385062244426	0
bin	0.0030641770407377	1
bin	0.0042898478570327	2
bin	0.0055155186733278	0
bin	0.0067411894896229	1
bin	0.0079668603059179	0
bin	0.009192531122213	2
bin	0.010418201938508	0
bin	0.011643872754803	0
bin	0.012869543571098	0
bin	0.014095214387393	0
bin	0.015320885203688	0
bin	0.016546556019983	0
bin	0.017772226836278	1
bin	0.018997897652574	0
bin	0.020223568468869	0
bin	0.021449239285164	0
bin	0.022674910101459	0
bin	0.023900580917754	0
bin	0.025126251734049	0
bin	0.026351922550344	0
bin	0.027577593366639	0
statistic car_host_30.hostC3.wlan[0].radio 	bitErrorRate:histogram
field count 339
field mean 0.00017810872327653
field stddev 0.0013639656560966
field sum 0.060378857190744
field sqrsum 0.00063956998228889
field min 5.8310895456533e-034
field max 0.018385062244426
attr source  bitErrorRate
attr title  "Bit error rate, histogram"
bin	-INF	0
bin	-0.009192531122213	0
bin	-0.0079668603059179	0
bin	-0.0067411894896229	0
bin	-0.0055155186733278	0
bin	-0.0042898478570327	0
bin	-0.0030641770407377	0
bin	-0.0018385062244426	0
bin	-0.00061283540814753	331
bin	0.00061283540814753	1
bin	0.0018385062244426	0
bin	0.0030641770407377	1
bin	0.0042898478570327	2
bin	0.0055155186733278	0
bin	0.0067411894896229	1
bin	0.0079668603059179	0
bin	0.009192531122213	2
bin	0.010418201938508	0
bin	0.011643872754803	0
bin	0.012869543571098	0
bin	0.014095214387393	0
bin	0.015320885203688	0
bin	0.016546556019983	0
bin	0.017772226836278	1
bin	0.018997897652574	0
bin	0.020223568468869	0
bin	0.021449239285164	0
bin	0.022674910101459	0
bin	0.023900580917754	0
bin	0.025126251734049	0
bin	0.026351922550344	0
bin	0.027577593366639	0
statistic car_host_30.hostC3.wlan[0].radio 	packetErrorRate:histogram
field count 339
field mean 0.021839676188486
field stddev 0.13587854759563
field sum 7.4036502278967
field sqrsum 6.4021804610736
field min 0
field max 0.99986455712735
attr source  packetErrorRate
attr title  "Packet error rate, histogram"
bin	-INF	0
bin	-0.49993227856368	0
bin	-0.43327464142185	0
bin	-0.36661700428003	0
bin	-0.29995936713821	0
bin	-0.23330172999638	0
bin	-0.16664409285456	0
bin	-0.099986455712735	0
bin	-0.033328818570912	327
bin	0.033328818570912	3
bin	0.099986455712735	1
bin	0.16664409285456	0
bin	0.23330172999638	0
bin	0.29995936713821	0
bin	0.36661700428003	1
bin	0.43327464142185	0
bin	0.49993227856368	0
bin	0.5665899157055	0
bin	0.63324755284732	0
bin	0.69990518998915	0
bin	0.76656282713097	0
bin	0.8332204642728	3
bin	0.89987810141462	0
bin	0.96653573855644	4
bin	1.0331933756983	0
bin	1.0998510128401	0
bin	1.1665086499819	0
bin	1.2331662871237	0
bin	1.2998239242656	0
bin	1.3664815614074	0
bin	1.4331391985492	0
bin	1.499796835691	0
statistic car_host_30.hostC3.wlan[0].radio 	minSNIR:histogram
field count 339
field mean 24.150930935905
field stddev 11.719416332248
field sum 8187.1655872717
field sqrsum 244150.18573799
field min 1.090256832
field max 36.553246209868
attr source  minSNIR
attr title  "Min SNIR, histogram"
bin	-INF	0
bin	-16.641237856934	0
bin	-14.277038565076	0
bin	-11.912839273218	0
bin	-9.5486399813603	0
bin	-7.1844406895025	0
bin	-4.8202413976446	0
bin	-2.4560421057868	0
bin	-0.09184281392891	7
bin	2.2723564779289	10
bin	4.6365557697868	5
bin	7.0007550616446	1
bin	9.3649543535025	2
bin	11.72915364536	1
bin	14.093352937218	156
bin	16.457552229076	0
bin	18.821751520934	2
bin	21.185950812792	0
bin	23.55015010465	0
bin	25.914349396507	1
bin	28.278548688365	0
bin	30.642747980223	0
bin	33.006947272081	0
bin	35.371146563939	154
bin	37.735345855797	0
bin	40.099545147655	0
bin	42.463744439512	0
bin	44.82794373137	0
bin	47.192143023228	0
bin	49.556342315086	0
bin	51.920541606944	0
bin	54.284740898802	0
scalar car_host_30.hostC3.wlan[0].radio 	transmissionState:count 	8
attr interpolationmode  sample-hold
attr source  transmissionStateChanged
attr title  "Radio transmission state, count"
scalar car_host_30.hostC3.wlan[0].radio 	receptionState:count 	1833
attr interpolationmode  sample-hold
attr source  receptionStateChanged
attr title  "Radio reception state, count"
scalar car_host_30.hostC3.wlan[0].radio 	radioMode:count 	6
attr interpolationmode  sample-hold
attr source  radioModeChanged
attr title  "Radio mode, count"
scalar car_host_30.hostC4.lo0.lo 	droppedPkBitError:count 	0
attr interpolationmode  none
attr source  dropPkBitError
attr title  "packets dropped/bit error, count"
scalar car_host_30.hostC4.lo0.lo 	droppedPkBitError:sum(packetBytes) 	0
attr interpolationmode  none
attr source  dropPkBitError
attr title  "packets dropped/bit error, sum(packetBytes)"
scalar car_host_30.hostC4.lo0.lo 	rcvdPkFromHL:count 	0
attr interpolationmode  none
attr source  packetReceivedFromUpper
attr title  "packets received from higher layer, count"
scalar car_host_30.hostC4.lo0.lo 	rcvdPkFromHL:sum(packetBytes) 	0
attr interpolationmode  none
attr source  packetReceivedFromUpper
attr title  "packets received from higher layer, sum(packetBytes)"
scalar car_host_30.hostC4.lo0.lo 	passedUpPk:count 	0
attr interpolationmode  none
attr source  packetSentToUpper
attr title  "packets passed to higher layer, count"
scalar car_host_30.hostC4.lo0.lo 	passedUpPk:sum(packetBytes) 	0
attr interpolationmode  none
attr source  packetSentToUpper
attr title  "packets passed to higher layer, sum(packetBytes)"
scalar car_host_30.hostC4.wlan[0].mac 	numRetry 	0
scalar car_host_30.hostC4.wlan[0].mac 	numSentWithoutRetry 	0
scalar car_host_30.hostC4.wlan[0].mac 	numGivenUp 	0
scalar car_host_30.hostC4.wlan[0].mac 	numCollision 	4
scalar car_host_30.hostC4.wlan[0].mac 	numSent 	154
scalar car_host_30.hostC4.wlan[0].mac 	numReceived 	154
scalar car_host_30.hostC4.wlan[0].mac 	numSentBroadcast 	2
scalar car_host_30.hostC4.wlan[0].mac 	numReceivedBroadcast 	16
statistic car_host_30.hostC4.wlan[0].radio 	symbolErrorRate:histogram
field count 178
field mean 0.00050751053656074
field stddev 0.0060214972504622
field sum 0.090336875507813
field sqrsum 0.0064635888734666
field min 1.3620391702921e-015
field max 0.080146414291793
attr source  symbolErrorRate
attr title  "Symbol error rate, histogram"
bin	-INF	0
bin	-0.040073207145894	0
bin	-0.034730112859775	0
bin	-0.029387018573655	0
bin	-0.024043924287536	0
bin	-0.018700830001417	0
bin	-0.013357735715297	0
bin	-0.0080146414291778	0
bin	-0.0026715471430584	175
bin	0.0026715471430611	2
bin	0.0080146414291805	0
bin	0.0133577357153	0
bin	0.018700830001419	0
bin	0.024043924287539	0
bin	0.029387018573658	0
bin	0.034730112859778	0
bin	0.040073207145897	0
bin	0.045416301432016	0
bin	0.050759395718136	0
bin	0.056102490004255	0
bin	0.061445584290375	0
bin	0.066788678576494	0
bin	0.072131772862614	0
bin	0.077474867148733	1
bin	0.082817961434852	0
bin	0.088161055720972	0
bin	0.093504150007091	0
bin	0.098847244293211	0
bin	0.10419033857933	0
bin	0.10953343286545	0
bin	0.11487652715157	0
bin	0.12021962143769	0
statistic car_host_30.hostC4.wlan[0].radio 	bitErrorRate:histogram
field count 178
field mean 0.00050751053656074
field stddev 0.0060214972504622
field sum 0.090336875507813
field sqrsum 0.0064635888734666
field min 1.3620391702921e-015
field max 0.080146414291793
attr source  bitErrorRate
attr title  "Bit error rate, histogram"
bin	-INF	0
bin	-0.040073207145894	0
bin	-0.034730112859775	0
bin	-0.029387018573655	0
bin	-0.024043924287536	0
bin	-0.018700830001417	0
bin	-0.013357735715297	0
bin	-0.0080146414291778	0
bin	-0.0026715471430584	175
bin	0.0026715471430611	2
bin	0.0080146414291805	0
bin	0.0133577357153	0
bin	0.018700830001419	0
bin	0.024043924287539	0
bin	0.029387018573658	0
bin	0.034730112859778	0
bin	0.040073207145897	0
bin	0.045416301432016	0
bin	0.050759395718136	0
bin	0.056102490004255	0
[...]
field count 327
field mean 7.5661167725568
field stddev 1.3270348875866
field sum 2474.1201846261
field sqrsum 19293.575265497
field min 2.30965548131
field max 20.059368187554
attr source  minSNIR
attr title  "Min SNIR, histogram"
bin	-INF	0
bin	-6.5652008718118	0
bin	-5.3818866913956	0
bin	-4.1985725109793	0
bin	-3.0152583305631	0
bin	-1.8319441501469	0
bin	-0.64862996973062	0
bin	0.53468421068562	0
bin	1.7179983911019	4
bin	2.9013125715181	0
bin	4.0846267519343	4
bin	5.2679409323506	3
bin	6.4512551127668	156
bin	7.6345692931831	156
bin	8.8178834735993	2
bin	10.001197654016	0
bin	11.184511834432	0
bin	12.367826014848	0
bin	13.551140195264	0
bin	14.73445437568	1
bin	15.917768556097	0
bin	17.101082736513	0
bin	18.284396916929	0
bin	19.467711097345	1
bin	20.651025277762	0
bin	21.834339458178	0
bin	23.017653638594	0
bin	24.20096781901	0
bin	25.384281999427	0
bin	26.567596179843	0
bin	27.750910360259	0
bin	28.934224540675	0
scalar car_host_30.hostC13.wlan[0].radio 	transmissionState:count 	12
attr interpolationmode  sample-hold
attr source  transmissionStateChanged
attr title  "Radio transmission state, count"
scalar car_host_30.hostC13.wlan[0].radio 	receptionState:count 	705
attr interpolationmode  sample-hold
attr source  receptionStateChanged
attr title  "Radio reception state, count"
scalar car_host_30.hostC13.wlan[0].radio 	radioMode:count 	8
attr interpolationmode  sample-hold
attr source  radioModeChanged
attr title  "Radio mode, count"
scalar car_host_30.hostC14.lo0.lo 	droppedPkBitError:count 	0
attr interpolationmode  none
attr source  dropPkBitError
attr title  "packets dropped/bit error, count"
scalar car_host_30.hostC14.lo0.lo 	droppedPkBitError:sum(packetBytes) 	0
attr interpolationmode  none
attr source  dropPkBitError
attr title  "packets dropped/bit error, sum(packetBytes)"
scalar car_host_30.hostC14.lo0.lo 	rcvdPkFromHL:count 	0
attr interpolationmode  none
attr source  packetReceivedFromUpper
attr title  "packets received from higher layer, count"
scalar car_host_30.hostC14.lo0.lo 	rcvdPkFromHL:sum(packetBytes) 	0
attr interpolationmode  none
attr source  packetReceivedFromUpper
attr title  "packets received from higher layer, sum(packetBytes)"
scalar car_host_30.hostC14.lo0.lo 	passedUpPk:count 	0
attr interpolationmode  none
attr source  packetSentToUpper
attr title  "packets passed to higher layer, count"
scalar car_host_30.hostC14.lo0.lo 	passedUpPk:sum(packetBytes) 	0
attr interpolationmode  none
attr source  packetSentToUpper
attr title  "packets passed to higher layer, sum(packetBytes)"
scalar car_host_30.hostC14.wlan[0].mac 	numRetry 	0
scalar car_host_30.hostC14.wlan[0].mac 	numSentWithoutRetry 	0
scalar car_host_30.hostC14.wlan[0].mac 	numGivenUp 	0
scalar car_host_30.hostC14.wlan[0].mac 	numCollision 	53
scalar car_host_30.hostC14.wlan[0].mac 	numSent 	0
scalar car_host_30.hostC14.wlan[0].mac 	numReceived 	0
scalar car_host_30.hostC14.wlan[0].mac 	numSentBroadcast 	3
scalar car_host_30.hostC14.wlan[0].mac 	numReceivedBroadcast 	18
statistic car_host_30.hostC14.wlan[0].radio 	symbolErrorRate:histogram
field count 903
field mean 0.00019642414858572
field stddev 0.0041504389035344
field sum 0.1773710061729
field sqrsum 0.01557282101783
field min 8.8807050591397e-028
field max 0.12165695471608
attr source  symbolErrorRate
attr title  "Symbol error rate, histogram"
bin	-INF	0
bin	-0.060828477358042	0
bin	-0.052718013710303	0
bin	-0.044607550062564	0
bin	-0.036497086414825	0
bin	-0.028386622767086	0
bin	-0.020276159119347	0
bin	-0.012165695471608	0
bin	-0.0040552318238695	900
bin	0.0040552318238695	0
bin	0.012165695471608	1
bin	0.020276159119347	1
bin	0.028386622767086	0
bin	0.036497086414825	0
bin	0.044607550062564	0
bin	0.052718013710303	0
bin	0.060828477358042	0
bin	0.068938941005781	0
bin	0.07704940465352	0
bin	0.085159868301259	0
bin	0.093270331948998	0
bin	0.10138079559674	0
bin	0.10949125924448	0
bin	0.11760172289221	1
bin	0.12571218653995	0
bin	0.13382265018769	0
bin	0.14193311383543	0
bin	0.15004357748317	0
bin	0.15815404113091	0
bin	0.16626450477865	0
bin	0.17437496842639	0
bin	0.18248543207413	0
statistic car_host_30.hostC14.wlan[0].radio 	bitErrorRate:histogram
field count 903
field mean 0.00019642414858572
field stddev 0.0041504389035344
field sum 0.1773710061729
field sqrsum 0.01557282101783
field min 8.8807050591397e-028
field max 0.12165695471608
attr source  bitErrorRate
attr title  "Bit error rate, histogram"
bin	-INF	0
bin	-0.060828477358042	0
bin	-0.052718013710303	0
bin	-0.044607550062564	0
bin	-0.036497086414825	0
bin	-0.028386622767086	0
bin	-0.020276159119347	0
bin	-0.012165695471608	0
bin	-0.0040552318238695	900
bin	0.0040552318238695	0
bin	0.012165695471608	1
bin	0.020276159119347	1
bin	0.028386622767086	0
bin	0.036497086414825	0
bin	0.044607550062564	0
bin	0.052718013710303	0
bin	0.060828477358042	0
bin	0.068938941005781	0
bin	0.07704940465352	0
bin	0.085159868301259	0
bin	0.093270331948998	0
bin	0.10138079559674	0
bin	0.10949125924448	0
bin	0.11760172289221	1
bin	0.12571218653995	0
bin	0.13382265018769	0
bin	0.14193311383543	0
bin	0.15004357748317	0
bin	0.15815404113091	0
bin	0.16626450477865	0
bin	0.17437496842639	0
bin	0.18248543207413	0
statistic car_host_30.hostC14.wlan[0].radio 	packetErrorRate:histogram
field count 903
field mean 0.052271657929484
field stddev 0.12308771764799
field sum 47.201307110324
field sqrsum 16.133119363779
field min 0
field max 1
attr source  packetErrorRate
attr title  "Packet error rate, histogram"
bin	-INF	0
bin	-0.5	0
bin	-0.43333333333333	0
bin	-0.36666666666667	0
bin	-0.3	0
bin	-0.23333333333333	0
bin	-0.16666666666667	0
bin	-0.1	0
bin	-0.033333333333333	732
bin	0.033333333333333	9
bin	0.1	2
bin	0.16666666666667	0
bin	0.23333333333333	152
bin	0.3	0
bin	0.36666666666667	0
bin	0.43333333333333	1
bin	0.5	0
bin	0.56666666666667	1
bin	0.63333333333333	0
bin	0.7	1
bin	0.76666666666667	0
bin	0.83333333333333	1
bin	0.9	0
bin	0.96666666666667	4
bin	1.0333333333333	0
bin	1.1	0
bin	1.1666666666667	0
bin	1.2333333333333	0
bin	1.3	0
bin	1.3666666666667	0
bin	1.4333333333333	0
bin	1.5	0
statistic car_host_30.hostC14.wlan[0].radio 	minSNIR:histogram
field count 903
field mean 7.0211096836883
field stddev 2.0427495336232
field sum 6340.0620443706
field sqrsum 48278.159757635
field min 0.34032268627452
field max 29.488058914724
attr source  minSNIR
attr title  "Min SNIR, histogram"
bin	-INF	0
bin	-14.23354542795	0
bin	-12.29036301272	0
bin	-10.34718059749	0
bin	-8.4039981822603	0
bin	-6.4608157670303	0
bin	-4.5176333518004	0
bin	-2.5744509365704	0
bin	-0.63126852134046	3
bin	1.3119138938895	9
bin	3.2550963091195	165
bin	5.1982787243494	2
bin	7.1414611395794	565
bin	9.0846435548094	155
bin	11.027825970039	0
bin	12.971008385269	2
bin	14.914190800499	1
bin	16.857373215729	0
bin	18.800555630959	0
bin	20.743738046189	0
bin	22.686920461419	0
bin	24.630102876649	0
bin	26.573285291879	0
bin	28.516467707109	1
bin	30.459650122339	0
bin	32.402832537569	0
bin	34.346014952799	0
bin	36.289197368029	0
bin	38.232379783259	0
bin	40.175562198489	0
bin	42.118744613719	0
bin	44.061927028949	0
scalar car_host_30.hostC14.wlan[0].radio 	transmissionState:count 	12
attr interpolationmode  sample-hold
attr source  transmissionStateChanged
attr title  "Radio transmission state, count"
scalar car_host_30.hostC14.wlan[0].radio 	receptionState:count 	1844
attr interpolationmode  sample-hold
attr source  receptionStateChanged
attr title  "Radio reception state, count"
scalar car_host_30.hostC14.wlan[0].radio 	radioMode:count 	8
attr interpolationmode  sample-hold
attr source  radioModeChanged
attr title  "Radio mode, count"
scalar car_host_30.hostB13.lo0.lo 	droppedPkBitError:count 	0
attr interpolationmode  none
attr source  dropPkBitError
attr title  "packets dropped/bit error, count"
scalar car_host_30.hostB13.lo0.lo 	droppedPkBitError:sum(packetBytes) 	0
attr interpolationmode  none
attr source  dropPkBitError
attr title  "packets dropped/bit error, sum(packetBytes)"
scalar car_host_30.hostB13.lo0.lo 	rcvdPkFromHL:count 	0
attr interpolationmode  none
attr source  packetReceivedFromUpper
attr title  "packets received from higher layer, count"
scalar car_host_30.hostB13.lo0.lo 	rcvdPkFromHL:sum(packetBytes) 	0
attr interpolationmode  none
attr source  packetReceivedFromUpper
attr title  "packets received from higher layer, sum(packetBytes)"
scalar car_host_30.hostB13.lo0.lo 	passedUpPk:count 	0
attr interpolationmode  none
attr source  packetSentToUpper
attr title  "packets passed to higher layer, count"
scalar car_host_30.hostB13.lo0.lo 	passedUpPk:sum(packetBytes) 	0
attr interpolationmode  none
attr source  packetSentToUpper
attr title  "packets passed to higher layer, sum(packetBytes)"
scalar car_host_30.hostB13.wlan[0].mac 	numRetry 	0
scalar car_host_30.hostB13.wlan[0].mac 	numSentWithoutRetry 	0
scalar car_host_30.hostB13.wlan[0].mac 	numGivenUp 	0
scalar car_host_30.hostB13.wlan[0].mac 	numCollision 	571
scalar car_host_30.hostB13.wlan[0].mac 	numSent 	0
scalar car_host_30.hostB13.wlan[0].mac 	numReceived 	0
scalar car_host_30.hostB13.wlan[0].mac 	numSentBroadcast 	4
scalar car_host_30.hostB13.wlan[0].mac 	numReceivedBroadcast 	34
statistic car_host_30.hostB13.wlan[0].radio 	symbolErrorRate:histogram
field count 2344
field mean 0.00030146079959856
field stddev 0.0048745295275252
field sum 0.70662411425903
field sqrsum 0.055885131773277
field min 2.9544627259761e-033
field max 0.15466317128296
attr source  symbolErrorRate
attr title  "Symbol error rate, histogram"
bin	-INF	0
bin	-0.077331585641481	0
bin	-0.067020707555951	0
bin	-0.05670982947042	0
bin	-0.046398951384889	0
bin	-0.036088073299358	0
bin	-0.025777195213827	0
bin	-0.015466317128296	0
bin	-0.0051554390427654	2333
bin	0.0051554390427654	0
bin	0.015466317128296	1
bin	0.025777195213827	6
bin	0.036088073299358	0
bin	0.046398951384889	2
bin	0.05670982947042	0
bin	0.067020707555951	0
bin	0.077331585641481	0
bin	0.087642463727012	0
bin	0.097953341812543	0
bin	0.10826421989807	0
bin	0.1185750979836	0
bin	0.12888597606914	0
bin	0.13919685415467	1
bin	0.1495077322402	1
bin	0.15981861032573	0
bin	0.17012948841126	0
bin	0.18044036649679	0
bin	0.19075124458232	0
bin	0.20106212266785	0
bin	0.21137300075338	0
bin	0.22168387883891	0
bin	0.23199475692444	0
statistic car_host_30.hostB13.wlan[0].radio 	bitErrorRate:histogram
field count 2344
field mean 0.00030146079959856
field stddev 0.0048745295275252
field sum 0.70662411425903
field sqrsum 0.055885131773277
field min 2.9544627259761e-033
field max 0.15466317128296
attr source  bitErrorRate
attr title  "Bit error rate, histogram"
bin	-INF	0
bin	-0.077331585641481	0
bin	-0.067020707555951	0
bin	-0.05670982947042	0
bin	-0.046398951384889	0
bin	-0.036088073299358	0
bin	-0.025777195213827	0
bin	-0.015466317128296	0
bin	-0.0051554390427654	2333
bin	0.0051554390427654	0
bin	0.015466317128296	1
bin	0.025777195213827	6
bin	0.036088073299358	0
bin	0.046398951384889	2
bin	0.05670982947042	0
bin	0.067020707555951	0
bin	0.077331585641481	0
bin	0.087642463727012	0
bin	0.097953341812543	0
bin	0.10826421989807	0
bin	0.1185750979836	0
bin	0.12888597606914	0
bin	0.13919685415467	1
bin	0.1495077322402	1
bin	0.15981861032573	0
bin	0.17012948841126	0
bin	0.18044036649679	0
bin	0.19075124458232	0
bin	0.20106212266785	0
bin	0.21137300075338	0
bin	0.22168387883891	0
bin	0.23199475692444	0
statistic car_host_30.hostB13.wlan[0].radio 	packetErrorRate:histogram
field count 2344
field mean 0.23424927254038
field stddev 0.25838496552447
field sum 549.08029483464
field sqrsum 285.04687755975
field min 0
field max 1
attr source  packetErrorRate
attr title  "Packet error rate, histogram"
bin	-INF	0
bin	-0.5	0
bin	-0.43333333333333	0
bin	-0.36666666666667	0
bin	-0.3	0
bin	-0.23333333333333	0
bin	-0.16666666666667	0
bin	-0.1	0
bin	-0.033333333333333	1170
bin	0.033333333333333	6
bin	0.1	0
bin	0.16666666666667	2
bin	0.23333333333333	2
bin	0.3	590
bin	0.36666666666667	0
bin	0.43333333333333	0
bin	0.5	1
bin	0.56666666666667	560
bin	0.63333333333333	0
bin	0.7	0
bin	0.76666666666667	0
bin	0.83333333333333	1
bin	0.9	0
bin	0.96666666666667	12
bin	1.0333333333333	0
bin	1.1	0
bin	1.1666666666667	0
bin	1.2333333333333	0
bin	1.3	0
bin	1.3666666666667	0
bin	1.4333333333333	0
bin	1.5	0
statistic car_host_30.hostB13.wlan[0].radio 	minSNIR:histogram
field count 2344
field mean 12.976039445962
field stddev 13.243571825127
field sum 30415.836461334
field sqrsum 805621.00585652
field min 0.25838748739347
field max 35.747395782649
attr source  minSNIR
attr title  "Min SNIR, histogram"
bin	-INF	0
bin	-17.486116660235	0
bin	-15.120182773884	0
bin	-12.754248887534	0
bin	-10.388315001183	0
bin	-8.0223811148329	0
bin	-5.6564472284825	0
bin	-3.2905133421321	0
bin	-0.92457945578173	11
bin	1.4413544305687	573
bin	3.8072883169191	600
bin	6.1732222032695	2
bin	8.5391560896199	576
bin	10.90508997597	1
bin	13.271023862321	4
bin	15.636957748671	0
bin	18.002891635021	0
bin	20.368825521372	0
bin	22.734759407722	0
bin	25.100693294073	0
bin	27.466627180423	0
bin	29.832561066773	0
bin	32.198494953124	0
bin	34.564428839474	577
bin	36.930362725825	0
bin	39.296296612175	0
bin	41.662230498525	0
bin	44.028164384876	0
bin	46.394098271226	0
bin	48.760032157577	0
bin	51.125966043927	0
bin	53.491899930277	0
scalar car_host_30.hostB13.wlan[0].radio 	transmissionState:count 	16
attr interpolationmode  sample-hold
attr source  transmissionStateChanged
attr title  "Radio transmission state, count"
scalar car_host_30.hostB13.wlan[0].radio 	receptionState:count 	4723
attr interpolationmode  sample-hold
attr source  receptionStateChanged
attr title  "Radio reception state, count"
scalar car_host_30.hostB13.wlan[0].radio 	radioMode:count 	10
attr interpolationmode  sample-hold
attr source  radioModeChanged
attr title  "Radio mode, count"
scalar car_host_30.hostB14.lo0.lo 	droppedPkBitError:count 	0
attr interpolationmode  none
attr source  dropPkBitError
attr title  "packets dropped/bit error, count"
scalar car_host_30.hostB14.lo0.lo 	droppedPkBitError:sum(packetBytes) 	0
attr interpolationmode  none
attr source  dropPkBitError
attr title  "packets dropped/bit error, sum(packetBytes)"
scalar car_host_30.hostB14.lo0.lo 	rcvdPkFromHL:count 	0
attr interpolationmode  none
attr source  packetReceivedFromUpper
attr title  "packets received from higher layer, count"
scalar car_host_30.hostB14.lo0.lo 	rcvdPkFromHL:sum(packetBytes) 	0
attr interpolationmode  none
attr source  packetReceivedFromUpper
attr title  "packets received from higher layer, sum(packetBytes)"
scalar car_host_30.hostB14.lo0.lo 	passedUpPk:count 	0
attr interpolationmode  none
attr source  packetSentToUpper
attr title  "packets passed to higher layer, count"
scalar car_host_30.hostB14.lo0.lo 	passedUpPk:sum(packetBytes) 	0
attr interpolationmode  none
attr source  packetSentToUpper
attr title  "packets passed to higher layer, sum(packetBytes)"
scalar car_host_30.hostB14.wlan[0].mac 	numRetry 	0
scalar car_host_30.hostB14.wlan[0].mac 	numSentWithoutRetry 	0
scalar car_host_30.hostB14.wlan[0].mac 	numGivenUp 	0
scalar car_host_30.hostB14.wlan[0].mac 	numCollision 	87
scalar car_host_30.hostB14.wlan[0].mac 	numSent 	0
scalar car_host_30.hostB14.wlan[0].mac 	numReceived 	0
scalar car_host_30.hostB14.wlan[0].mac 	numSentBroadcast 	3
scalar car_host_30.hostB14.wlan[0].mac 	numReceivedBroadcast 	22
statistic car_host_30.hostB14.wlan[0].radio 	symbolErrorRate:histogram
field count 1744
field mean 8.3010447794626e-005
field stddev 0.0015521683277352
field sum 0.14477022095383
field sqrsum 0.0042112992610881
field min 1.2991663951196e-023
field max 0.060525291706301
attr source  symbolErrorRate
attr title  "Symbol error rate, histogram"
bin	-INF	0
bin	-0.03026264585315	0
bin	-0.026227626406064	0
bin	-0.022192606958977	0
bin	-0.01815758751189	0
bin	-0.014122568064804	0
bin	-0.010087548617717	0
bin	-0.0060525291706301	0
bin	-0.0020175097235434	1733
bin	0.0020175097235434	3
bin	0.0060525291706301	7
bin	0.010087548617717	0
bin	0.014122568064804	0
bin	0.01815758751189	0
bin	0.022192606958977	0
bin	0.026227626406064	0
bin	0.03026264585315	0
bin	0.034297665300237	0
bin	0.038332684747324	0
bin	0.042367704194411	0
bin	0.046402723641497	0
bin	0.050437743088584	0
bin	0.054472762535671	0
bin	0.058507781982757	1
bin	0.062542801429844	0
bin	0.066577820876931	0
bin	0.070612840324018	0
bin	0.074647859771104	0
bin	0.078682879218191	0
bin	0.082717898665278	0
bin	0.086752918112365	0
bin	0.090787937559451	0
statistic car_host_30.hostB14.wlan[0].radio 	bitErrorRate:histogram
field count 1744
field mean 8.3010447794626e-005
field stddev 0.0015521683277352
field sum 0.14477022095383
field sqrsum 0.0042112992610881
field min 1.2991663951196e-023
field max 0.060525291706301
attr source  bitErrorRate
attr title  "Bit error rate, histogram"
bin	-INF	0
bin	-0.03026264585315	0
bin	-0.026227626406064	0
bin	-0.022192606958977	0
bin	-0.01815758751189	0
bin	-0.014122568064804	0
bin	-0.010087548617717	0
bin	-0.0060525291706301	0
bin	-0.0020175097235434	1733
bin	0.0020175097235434	3
bin	0.0060525291706301	7
bin	0.010087548617717	0
bin	0.014122568064804	0
bin	0.01815758751189	0
bin	0.022192606958977	0
bin	0.026227626406064	0
bin	0.03026264585315	0
bin	0.034297665300237	0
bin	0.038332684747324	0
bin	0.042367704194411	0
bin	0.046402723641497	0
bin	0.050437743088584	0
bin	0.054472762535671	0
bin	0.058507781982757	1
bin	0.062542801429844	0
bin	0.066577820876931	0
bin	0.070612840324018	0
bin	0.074647859771104	0
bin	0.078682879218191	0
bin	0.082717898665278	0
bin	0.086752918112365	0
bin	0.090787937559451	0
statistic car_host_30.hostB14.wlan[0].radio 	packetErrorRate:histogram
field count 1744
field mean 0.043686858858029
field stddev 0.085199019973993
field sum 76.189881848402
field sqrsum 15.980712261615
field min 0
field max 1
attr source  packetErrorRate
attr title  "Packet error rate, histogram"
bin	-INF	0
bin	-0.5	0
bin	-0.43333333333333	0
bin	-0.36666666666667	0
bin	-0.3	0
bin	-0.23333333333333	0
bin	-0.16666666666667	0
bin	-0.1	0
bin	-0.033333333333333	1166
bin	0.033333333333333	560
bin	0.1	1
bin	0.16666666666667	0
bin	0.23333333333333	3
bin	0.3	1
bin	0.36666666666667	1
bin	0.43333333333333	0
bin	0.5	1
bin	0.56666666666667	0
bin	0.63333333333333	0
bin	0.7	1
bin	0.76666666666667	0
bin	0.83333333333333	2
bin	0.9	0
bin	0.96666666666667	8
bin	1.0333333333333	0
bin	1.1	0
bin	1.1666666666667	0
bin	1.2333333333333	0
bin	1.3	0
bin	1.3666666666667	0
bin	1.4333333333333	0
bin	1.5	0
statistic car_host_30.hostB14.wlan[0].radio 	minSNIR:histogram
field count 1744
field mean 5.8302713921935
field stddev 1.6651601547014
field sum 10167.993307985
field sqrsum 64115.078287586
field min 0.60091873662521
field max 24.735829447207
attr source  minSNIR
attr title  "Min SNIR, histogram"
bin	-INF	0
bin	-11.466536618666	0
bin	-9.8575425712936	0
bin	-8.2485485239214	0
bin	-6.6395544765493	0
bin	-5.0305604291772	0
bin	-3.4215663818051	0
bin	-1.812572334433	0
bin	-0.20357828706084	1
bin	1.4054157603113	17
bin	3.0144098076834	565
bin	4.6234038550555	577
bin	6.2323979024276	578
bin	7.8413919497997	2
bin	9.4503859971719	0
bin	11.059380044544	0
bin	12.668374091916	0
bin	14.277368139288	1
bin	15.88636218666	0
bin	17.495356234032	0
bin	19.104350281405	0
bin	20.713344328777	0
bin	22.322338376149	0
bin	23.931332423521	3
bin	25.540326470893	0
bin	27.149320518265	0
bin	28.758314565637	0
bin	30.367308613009	0
bin	31.976302660382	0
bin	33.585296707754	0
bin	35.194290755126	0
bin	36.803284802498	0
scalar car_host_30.hostB14.wlan[0].radio 	transmissionState:count 	12
attr interpolationmode  sample-hold
attr source  transmissionStateChanged
attr title  "Radio transmission state, count"
scalar car_host_30.hostB14.wlan[0].radio 	receptionState:count 	3522
attr interpolationmode  sample-hold
attr source  receptionStateChanged
attr title  "Radio reception state, count"
scalar car_host_30.hostB14.wlan[0].radio 	radioMode:count 	8
attr interpolationmode  sample-hold
attr source  radioModeChanged
attr title  "Radio mode, count"
