version 2
run Host40_20pps-0-20161111-14:27:36-8620
attr configname Host40_20pps
attr datetime 20161111-14:27:36
attr experiment Host40_20pps
attr inifile omnetpp_40.ini
attr iterationvars ""
attr iterationvars2 $repetition=0
attr measurement ""
attr network arb_png.car_host_40
attr processid 8620
attr repetition 0
attr replication #0
attr resultdir results
attr runnumber 0
attr seedset 0
param **.aodv.activeRouteTimeout 2s
param *.configurator.addStaticRoutes false
param *.configurator.config "xml(\"<config><interface hosts='**' address='10.0.0.x' netmask='255.255.255.0'/><autoroute metric='errorRate'/></config>\")"
param *.configurator.optimizeRoutes true
param *.host*.**.bitrate 1Mbps
param *.host*.networkLayer.arpType "\"GlobalARP\""
param *.host*.routingTable.netmaskRoutes "\"\""
param *.host*.wlan[0].mac.maxQueueSize 15
param *.host*.wlan[0].mac.useAck false
param *.host*.wlan[0].macType "\"CsmaCaMac\""
param *.host*.wlan[0].radio.bandwidth 2MHz
param *.host*.wlan[0].radio.carrierFrequency 2GHz
param *.host*.wlan[0].radio.displayCommunicationRange true
param *.host*.wlan[0].radio.displayInterferenceRange true
param *.host*.wlan[0].radio.receiver.energyDetection -85dBm
param *.host*.wlan[0].radio.receiver.ignoreInterference false
param *.host*.wlan[0].radio.receiver.sensitivity -85dBm
param *.host*.wlan[0].radio.receiver.snirThreshold 4dB
param *.host*.wlan[0].radio.transmitter.communicationRange 200m
param *.host*.wlan[0].radio.transmitter.headerBitLength 0b
param *.host*.wlan[0].radio.transmitter.power 1.4mW
param *.host*.wlan[0].radio.transmitter.preambleDuration 10us
param *.host*.wlan[0].radioType "\"APSKScalarRadio\""
param *.host*.wlan[0].typename "\"WirelessNic\""
param *.hostA.numUdpApps 1
param *.hostA.udpApp[0].destAddresses "\"hostD\""
param *.hostA.udpApp[0].destPort 5000
param *.hostA.udpApp[0].messageLength 1000B
param *.hostA.udpApp[0].packetName "\"Data\""
param *.hostA.udpApp[0].sendInterval 50ms
param *.hostA.udpApp[0].typename "\"UDPBasicApp\""
param *.hostD.numUdpApps 1
param *.hostD.udpApp[0].localPort 5000
param *.hostD.udpApp[0].typename "\"UDPSink\""
param *.hostType "\"AODVRouter\""
param *.mediumType "\"APSKScalarRadioMedium\""
param *.radioMedium.backgroundNoise.power -90dBm
param *.radioMedium.mediumLimitCache.carrierFrequency 2GHz
param *.visualizer.dataLinkVisualizer.packetNameFilter "\"AODV*\""
param *.visualizer.mediumVisualizer.signalPropagationUpdateInterval 100ns
param *.visualizer.mobilityVisualizer.displayMovementTrail true
param *.visualizer.networkRouteVisualizer.packetNameFilter "\"UDPData*\""
param *.visualizer.sceneVisualizer.descriptionFigure "\"title\""

scalar car_host_40.radioMedium.propagation 	"Arrival computation count" 	198727
scalar car_host_40.radioMedium 	"transmission count" 	4847
scalar car_host_40.radioMedium 	"radio frame send count" 	198727
scalar car_host_40.radioMedium 	"reception computation count" 	198727
scalar car_host_40.radioMedium 	"interference computation count" 	574132
scalar car_host_40.radioMedium 	"reception decision computation count" 	65416
scalar car_host_40.radioMedium 	"listening decision computation count" 	311083
scalar car_host_40.radioMedium 	"reception cache hit" 	81.872985844242
attr unit  %
scalar car_host_40.radioMedium 	"interference cache hit" 	66.666666666667
attr unit  %
scalar car_host_40.radioMedium 	"noise cache hit" 	0
attr unit  %
scalar car_host_40.radioMedium 	"snir cache hit" 	50
attr unit  %
scalar car_host_40.radioMedium 	"reception decision cache hit" 	50
attr unit  %
scalar car_host_40.radioMedium 	"reception result cache hit" 	0
attr unit  %
scalar car_host_40.hostA.lo0.lo 	droppedPkBitError:count 	0
attr interpolationmode  none
attr source  dropPkBitError
attr title  "packets dropped/bit error, count"
scalar car_host_40.hostA.lo0.lo 	droppedPkBitError:sum(packetBytes) 	0
attr interpolationmode  none
attr source  dropPkBitError
attr title  "packets dropped/bit error, sum(packetBytes)"
scalar car_host_40.hostA.lo0.lo 	rcvdPkFromHL:count 	0
attr interpolationmode  none
attr source  packetReceivedFromUpper
attr title  "packets received from higher layer, count"
scalar car_host_40.hostA.lo0.lo 	rcvdPkFromHL:sum(packetBytes) 	0
attr interpolationmode  none
attr source  packetReceivedFromUpper
attr title  "packets received from higher layer, sum(packetBytes)"
scalar car_host_40.hostA.lo0.lo 	passedUpPk:count 	0
attr interpolationmode  none
attr source  packetSentToUpper
attr title  "packets passed to higher layer, count"
scalar car_host_40.hostA.lo0.lo 	passedUpPk:sum(packetBytes) 	0
attr interpolationmode  none
attr source  packetSentToUpper
attr title  "packets passed to higher layer, sum(packetBytes)"
scalar car_host_40.hostA.wlan[0].mac 	numRetry 	0
scalar car_host_40.hostA.wlan[0].mac 	numSentWithoutRetry 	0
scalar car_host_40.hostA.wlan[0].mac 	numGivenUp 	0
scalar car_host_40.hostA.wlan[0].mac 	numCollision 	72
scalar car_host_40.hostA.wlan[0].mac 	numSent 	1184
scalar car_host_40.hostA.wlan[0].mac 	numReceived 	1
scalar car_host_40.hostA.wlan[0].mac 	numSentBroadcast 	4
scalar car_host_40.hostA.wlan[0].mac 	numReceivedBroadcast 	22
statistic car_host_40.hostA.wlan[0].radio 	symbolErrorRate:histogram
field count 674
field mean 0.00010934605442139
field stddev 0.0013830627664093
field sum 0.07369924068002
field sqrsum 0.0012954152616344
field min 1.3620169898655e-015
field max 0.024235690611184
attr source  symbolErrorRate
attr title  "Symbol error rate, histogram"
bin	-INF	0
bin	-0.01211784530559	0
bin	-0.010502132598178	0
bin	-0.0088864198907656	0
bin	-0.0072707071833534	0
bin	-0.0056549944759412	0
bin	-0.0040392817685291	0
bin	-0.0024235690611169	0
bin	-0.00080785635370472	669
bin	0.00080785635370745	1
bin	0.0024235690611196	1
bin	0.0040392817685318	0
bin	0.005654994475944	0
bin	0.0072707071833561	0
bin	0.0088864198907683	0
bin	0.01050213259818	0
bin	0.012117845305593	0
bin	0.013733558013005	0
bin	0.015349270720417	1
bin	0.016964983427829	0
bin	0.018580696135241	0
bin	0.020196408842653	1
bin	0.021812121550066	0
bin	0.023427834257478	1
bin	0.02504354696489	0
bin	0.026659259672302	0
bin	0.028274972379714	0
bin	0.029890685087127	0
bin	0.031506397794539	0
bin	0.033122110501951	0
bin	0.034737823209363	0
bin	0.036353535916775	0
statistic car_host_40.hostA.wlan[0].radio 	bitErrorRate:histogram
field count 674
field mean 0.00010934605442139
field stddev 0.0013830627664093
field sum 0.07369924068002
field sqrsum 0.0012954152616344
field min 1.3620169898655e-015
field max 0.024235690611184
attr source  bitErrorRate
attr title  "Bit error rate, histogram"
bin	-INF	0
bin	-0.01211784530559	0
bin	-0.010502132598178	0
bin	-0.0088864198907656	0
bin	-0.0072707071833534	0
bin	-0.0056549944759412	0
bin	-0.0040392817685291	0
bin	-0.0024235690611169	0
bin	-0.00080785635370472	669
bin	0.00080785635370745	1
bin	0.0024235690611196	1
bin	0.0040392817685318	0
bin	0.005654994475944	0
bin	0.0072707071833561	0
bin	0.0088864198907683	0
bin	0.01050213259818	0
bin	0.012117845305593	0
bin	0.013733558013005	0
bin	0.015349270720417	1
bin	0.016964983427829	0
bin	0.018580696135241	0
bin	0.020196408842653	1
bin	0.021812121550066	0
bin	0.023427834257478	1
bin	0.02504354696489	0
bin	0.026659259672302	0
bin	0.028274972379714	0
bin	0.029890685087127	0
bin	0.031506397794539	0
bin	0.033122110501951	0
bin	0.034737823209363	0
bin	0.036353535916775	0
statistic car_host_40.hostA.wlan[0].radio 	packetErrorRate:histogram
field count 674
field mean 0.091783527193967
field stddev 0.10268735706923
field sum 61.862097328734
field sqrsum 12.774500084602
field min 6.3948846218409e-013
field max 0.99999231638061
attr source  packetErrorRate
attr title  "Packet error rate, histogram"
bin	-INF	0
bin	-0.49999615818934	0
bin	-0.43333000376401	0
bin	-0.36666384933868	0
bin	-0.29999769491335	0
bin	-0.23333154048802	0
bin	-0.16666538606269	0
bin	-0.099999231637357	0
bin	-0.033333077212026	22
bin	0.033333077213305	611
bin	0.099999231638636	1
bin	0.16666538606397	0
bin	0.2333315404893	0
bin	0.29999769491463	0
bin	0.36666384933996	36
bin	0.43333000376529	0
bin	0.49999615819062	0
bin	0.56666231261595	0
bin	0.63332846704128	0
bin	0.69999462146662	1
bin	0.76666077589195	0
bin	0.83332693031728	0
bin	0.89999308474261	0
bin	0.96665923916794	3
bin	1.0333253935933	0
bin	1.0999915480186	0
bin	1.1666577024439	0
bin	1.2333238568693	0
bin	1.2999900112946	0
bin	1.3666561657199	0
bin	1.4333223201453	0
bin	1.4999884745706	0
statistic car_host_40.hostA.wlan[0].radio 	minSNIR:histogram
field count 674
field mean 4.589700122969
field stddev 0.72846149008694
field sum 3093.4578828811
field sqrsum 14555.175609388
field min 0.97339168199896
field max 15.614110336308
attr source  minSNIR
attr title  "Min SNIR, histogram"
bin	-INF	0
bin	-6.3469676451556	0
bin	-5.3709197348683	0
bin	-4.394871824581	0
bin	-3.4188239142938	0
bin	-2.4427760040065	0
bin	-1.4667280937192	0
bin	-0.49068018343195	0
bin	0.48536772685532	3
bin	1.4614156371426	2
bin	2.4374635474299	1
bin	3.4135114577171	39
bin	4.3895593680044	619
bin	5.3656072782917	4
bin	6.341655188579	0
bin	7.3177030988662	2
bin	8.2937510091535	0
bin	9.2697989194408	0
bin	10.245846829728	3
bin	11.221894740015	0
bin	12.197942650303	0
bin	13.17399056059	0
bin	14.150038470877	0
bin	15.126086381164	1
bin	16.102134291452	0
bin	17.078182201739	0
bin	18.054230112026	0
bin	19.030278022314	0
bin	20.006325932601	0
bin	20.982373842888	0
bin	21.958421753175	0
bin	22.934469663463	0
scalar car_host_40.hostA.wlan[0].radio 	transmissionState:count 	4752
attr interpolationmode  sample-hold
attr source  transmissionStateChanged
attr title  "Radio transmission state, count"
scalar car_host_40.hostA.wlan[0].radio 	receptionState:count 	3744
attr interpolationmode  sample-hold
attr source  receptionStateChanged
attr title  "Radio reception state, count"
scalar car_host_40.hostA.wlan[0].radio 	radioMode:count 	2378
attr interpolationmode  sample-hold
attr source  radioModeChanged
attr title  "Radio mode, count"
scalar car_host_40.hostA.udpApp[0] 	"packets sent" 	1200
scalar car_host_40.hostA.udpApp[0] 	"packets received" 	0
scalar car_host_40.hostA.udpApp[0] 	sentPk:count 	1200
attr interpolationmode  none
attr source  sentPk
attr title  "packets sent, count"
scalar car_host_40.hostA.udpApp[0] 	sentPk:sum(packetBytes) 	1200000
attr interpolationmode  none
attr source  sentPk
attr title  "packets sent, sum(packetBytes)"
scalar car_host_40.hostA.udpApp[0] 	rcvdPk:count 	0
attr interpolationmode  none
attr source  rcvdPk
attr title  "packets received, count"
scalar car_host_40.hostA.udpApp[0] 	rcvdPk:sum(packetBytes) 	0
attr interpolationmode  none
attr source  rcvdPk
attr title  "packets received, sum(packetBytes)"
scalar car_host_40.hostA.udpApp[0] 	throughput:last 	nan
attr source  throughput(rcvdPk)
attr title  "throughput, last"
attr unit  bps
statistic car_host_40.hostA.udpApp[0] 	rcvdPkLifetime:stats
field count 0
field mean nan
field stddev nan
field sum 0
field sqrsum 0
field min nan
field max nan
attr interpolationmode  none
attr source  messageAge(rcvdPk)
attr title  "received packet lifetime, stats"
attr unit  s
scalar car_host_40.hostA.udp 	droppedPkBadChecksum:count 	0
attr interpolationmode  none
attr title  "packets dropped (checksum error), count"
scalar car_host_40.hostA.udp 	droppedPkWrongPort:count 	0
attr interpolationmode  none
attr title  "packets dropped (wrong port), count"
scalar car_host_40.hostA.udp 	passedUpPk:count 	0
attr interpolationmode  none
attr title  "packets passed up, count"
scalar car_host_40.hostA.udp 	sentPk:count 	1200
attr interpolationmode  none
attr source  sentPk
attr title  "packets sent, count"
scalar car_host_40.hostA.udp 	sentPk:sum(packetBytes) 	1209600
attr interpolationmode  none
attr source  sentPk
attr title  "packets sent, sum(packetBytes)"
scalar car_host_40.hostA.udp 	rcvdPk:count 	0
attr interpolationmode  none
attr source  rcvdPk
attr title  "packets received, count"
scalar car_host_40.hostA.udp 	rcvdPk:sum(packetBytes) 	0
attr interpolationmode  none
attr source  rcvdPk
attr title  "packets received, sum(packetBytes)"
scalar car_host_40.hostD.lo0.lo 	droppedPkBitError:count 	0
attr interpolationmode  none
attr source  dropPkBitError
attr title  "packets dropped/bit error, count"
scalar car_host_40.hostD.lo0.lo 	droppedPkBitError:sum(packetBytes) 	0
attr interpolationmode  none
attr source  dropPkBitError
attr title  "packets dropped/bit error, sum(packetBytes)"
scalar car_host_40.hostD.lo0.lo 	rcvdPkFromHL:count 	0
attr interpolationmode  none
attr source  packetReceivedFromUpper
attr title  "packets received from higher layer, count"
scalar car_host_40.hostD.lo0.lo 	rcvdPkFromHL:sum(packetBytes) 	0
attr interpolationmode  none
attr source  packetReceivedFromUpper
attr title  "packets received from higher layer, sum(packetBytes)"
scalar car_host_40.hostD.lo0.lo 	passedUpPk:count 	0
attr interpolationmode  none
attr source  packetSentToUpper
attr title  "packets passed to higher layer, count"
scalar car_host_40.hostD.lo0.lo 	passedUpPk:sum(packetBytes) 	0
attr interpolationmode  none
attr source  packetSentToUpper
attr title  "packets passed to higher layer, sum(packetBytes)"
scalar car_host_40.hostD.wlan[0].mac 	numRetry 	0
scalar car_host_40.hostD.wlan[0].mac 	numSentWithoutRetry 	0
scalar car_host_40.hostD.wlan[0].mac 	numGivenUp 	0
scalar car_host_40.hostD.wlan[0].mac 	numCollision 	2
scalar car_host_40.hostD.wlan[0].mac 	numSent 	2
scalar car_host_40.hostD.wlan[0].mac 	numReceived 	494
scalar car_host_40.hostD.wlan[0].mac 	numSentBroadcast 	0
scalar car_host_40.hostD.wlan[0].mac 	numReceivedBroadcast 	18
statistic car_host_40.hostD.wlan[0].radio 	symbolErrorRate:histogram
field count 515
field mean 4.05166651705e-006
field stddev 5.423398397564e-005
field sum 0.0020866082562807
field sqrsum 1.5202952999913e-006
field min 2.9972646811824e-023
field max 0.00099403486953708
attr source  symbolErrorRate
attr title  "Symbol error rate, histogram"
bin	-INF	0
bin	-0.00049701743476854	0
bin	-0.00043074844346607	0
bin	-0.0003644794521636	0
bin	-0.00029821046086112	0
bin	-0.00023194146955865	0
bin	-0.00016567247825618	0
bin	-9.9403486953708e-005	0
bin	-3.3134495651236e-005	511
bin	3.3134495651236e-005	1
bin	9.9403486953708e-005	0
bin	0.00016567247825618	0
bin	0.00023194146955865	0
bin	0.00029821046086112	0
bin	0.0003644794521636	1
bin	0.00043074844346607	0
bin	0.00049701743476854	0
bin	0.00056328642607101	1
bin	0.00062955541737348	0
bin	0.00069582440867595	0
bin	0.00076209339997843	0
bin	0.0008283623912809	0
bin	0.00089463138258337	0
bin	0.00096090037388584	1
bin	0.0010271693651883	0
bin	0.0010934383564908	0
bin	0.0011597073477933	0
bin	0.0012259763390957	0
bin	0.0012922453303982	0
bin	0.0013585143217007	0
bin	0.0014247833130031	0
bin	0.0014910523043056	0
statistic car_host_40.hostD.wlan[0].radio 	bitErrorRate:histogram
field count 515
field mean 4.05166651705e-006
field stddev 5.423398397564e-005
field sum 0.0020866082562807
field sqrsum 1.5202952999913e-006
field min 2.9972646811824e-023
field max 0.00099403486953708
attr source  bitErrorRate
attr title  "Bit error rate, histogram"
bin	-INF	0
bin	-0.00049701743476854	0
bin	-0.00043074844346607	0
bin	-0.0003644794521636	0
bin	-0.00029821046086112	0
bin	-0.00023194146955865	0
bin	-0.00016567247825618	0
bin	-9.9403486953708e-005	0
bin	-3.3134495651236e-005	511
bin	3.3134495651236e-005	1
bin	9.9403486953708e-005	0
bin	0.00016567247825618	0
bin	0.00023194146955865	0
bin	0.00029821046086112	0
bin	0.0003644794521636	1
bin	0.00043074844346607	0
bin	0.00049701743476854	0
bin	0.00056328642607101	1
bin	0.00062955541737348	0
bin	0.00069582440867595	0
bin	0.00076209339997843	0
bin	0.0008283623912809	0
bin	0.00089463138258337	0
bin	0.00096090037388584	1
bin	0.0010271693651883	0
bin	0.0010934383564908	0
bin	0.0011597073477933	0
bin	0.0012259763390957	0
bin	0.0012922453303982	0
bin	0.0013585143217007	0
bin	0.0014247833130031	0
bin	0.0014910523043056	0
statistic car_host_40.hostD.wlan[0].radio 	packetErrorRate:histogram
field count 515
field mean 0.0016464455444991
field stddev 0.0214872755204
field sum 0.84791945541705
field sqrsum 0.23871139998431
field min 0
field max 0.37958957238199
attr source  packetErrorRate
attr title  "Packet error rate, histogram"
bin	-INF	0
bin	-0.189794786191	0
bin	-0.16448881469886	0
bin	-0.13918284320673	0
bin	-0.1138768717146	0
bin	-0.088570900222465	0
bin	-0.063264928730332	0
bin	-0.037958957238199	0
bin	-0.012652985746066	511
bin	0.012652985746066	1
bin	0.037958957238199	0
bin	0.063264928730332	0
bin	0.088570900222465	0
bin	0.1138768717146	0
bin	0.13918284320673	1
bin	0.16448881469886	0
bin	0.189794786191	0
bin	0.21510075768313	0
bin	0.24040672917526	1
bin	0.26571270066739	0
bin	0.29101867215953	0
bin	0.31632464365166	0
bin	0.34163061514379	0
bin	0.36693658663593	1
bin	0.39224255812806	0
bin	0.41754852962019	0
bin	0.44285450111232	0
bin	0.46816047260446	0
bin	0.49346644409659	0
bin	0.51877241558872	0
bin	0.54407838708086	0
bin	0.56938435857299	0
statistic car_host_40.hostD.wlan[0].radio 	minSNIR:histogram
field count 515
field mean 19.377319367013
field stddev 2.5314621211735
field sum 9979.3194740116
field sqrsum 196666.32695543
field min 2.3901295622101
field max 24.321977011446
attr source  minSNIR
attr title  "Min SNIR, histogram"
bin	-INF	0
bin	-8.5757941624078	0
bin	-7.1136709991254	0
bin	-5.651547835843	0
bin	-4.1894246725606	0
bin	-2.7273015092782	0
bin	-1.2651783459958	0
bin	0.19694481728655	0
bin	1.6590679805689	3
bin	3.1211911438513	1
bin	4.5833143071337	6
bin	6.0454374704161	3
bin	7.5075606336985	0
bin	8.9696837969808	1
bin	10.431806960263	0
bin	11.893930123546	2
bin	13.356053286828	0
bin	14.81817645011	1
bin	16.280299613393	2
bin	17.742422776675	35
bin	19.204545939958	459
bin	20.66666910324	0
bin	22.128792266522	0
bin	23.590915429805	2
bin	25.053038593087	0
bin	26.515161756369	0
bin	27.977284919652	0
bin	29.439408082934	0
bin	30.901531246217	0
bin	32.363654409499	0
bin	33.825777572781	0
bin	35.287900736064	0
scalar car_host_40.hostD.wlan[0].radio 	transmissionState:count 	8
attr interpolationmode  sample-hold
attr source  transmissionStateChanged
attr title  "Radio transmission state, count"
scalar car_host_40.hostD.wlan[0].radio 	receptionState:count 	2077
attr interpolationmode  sample-hold
attr source  receptionStateChanged
attr title  "Radio reception state, count"
scalar car_host_40.hostD.wlan[0].radio 	radioMode:count 	6
attr interpolationmode  sample-hold
attr source  radioModeChanged
attr title  "Radio mode, count"
scalar car_host_40.hostD.udpApp[0] 	rcvdPk:count 	494
attr interpolationmode  none
attr source  rcvdPk
attr title  "packets received, count"
scalar car_host_40.hostD.udpApp[0] 	rcvdPk:sum(packetBytes) 	494000
attr interpolationmode  none
attr source  rcvdPk
attr title  "packets received, sum(packetBytes)"
scalar car_host_40.hostD.udpApp[0] 	throughput:last 	45840.018336007
attr source  throughput(rcvdPk)
attr title  "throughput, last"
attr unit  bps
statistic car_host_40.hostD.udpApp[0] 	endToEndDelay:histogram
field count 494
field mean 0.060258229875292
field stddev 0.00050145486409252
field sum 29.767565558394
field sqrsum 1.793864776537
field min 0.058669727851
field max 0.061449727851
attr interpolationmode  none
attr source  messageAge(rcvdPk)
attr title  "end-to-end delay, histogram"
attr unit  s
bin	-INF	0
bin	0.057279727851	0
bin	0.057465061184333	0
bin	0.057650394517667	0
bin	0.057835727851	0
bin	0.058021061184333	0
bin	0.058206394517667	0
bin	0.058391727851	0
bin	0.058577061184333	1
bin	0.058762394517667	1
bin	0.058947727851	6
bin	0.059133061184333	11
bin	0.059318394517667	16
bin	0.059503727851	30
bin	0.059689061184333	48
bin	0.059874394517667	53
bin	0.060059727851	70
bin	0.060245061184333	76
bin	0.060430394517667	59
bin	0.060615727851	39
bin	0.060801061184333	47
bin	0.060986394517667	28
bin	0.061171727851	7
bin	0.061357061184333	2
bin	0.061542394517667	0
bin	0.061727727851	0
bin	0.061913061184333	0
bin	0.062098394517667	0
bin	0.062283727851	0
bin	0.062469061184333	0
bin	0.062654394517667	0
bin	0.062839727851	0
scalar car_host_40.hostD.udp 	droppedPkBadChecksum:count 	0
attr interpolationmode  none
attr title  "packets dropped (checksum error), count"
scalar car_host_40.hostD.udp 	droppedPkWrongPort:count 	0
attr interpolationmode  none
attr title  "packets dropped (wrong port), count"
scalar car_host_40.hostD.udp 	passedUpPk:count 	494
attr interpolationmode  none
attr title  "packets passed up, count"
scalar car_host_40.hostD.udp 	sentPk:count 	0
attr interpolationmode  none
attr source  sentPk
attr title  "packets sent, count"
scalar car_host_40.hostD.udp 	sentPk:sum(packetBytes) 	0
attr interpolationmode  none
attr source  sentPk
attr title  "packets sent, sum(packetBytes)"
scalar car_host_40.hostD.udp 	rcvdPk:count 	494
attr interpolationmode  none
attr source  rcvdPk
attr title  "packets received, count"
scalar car_host_40.hostD.udp 	rcvdPk:sum(packetBytes) 	497952
attr interpolationmode  none
attr source  rcvdPk
attr title  "packets received, sum(packetBytes)"
scalar car_host_40.hostB.lo0.lo 	droppedPkBitError:count 	0
attr interpolationmode  none
attr source  dropPkBitError
attr title  "packets dropped/bit error, count"
scalar car_host_40.hostB.lo0.lo 	droppedPkBitError:sum(packetBytes) 	0
attr interpolationmode  none
attr source  dropPkBitError
attr title  "packets dropped/bit error, sum(packetBytes)"
scalar car_host_40.hostB.lo0.lo 	rcvdPkFromHL:count 	0
attr interpolationmode  none
attr source  packetReceivedFromUpper
attr title  "packets received from higher layer, count"
scalar car_host_40.hostB.lo0.lo 	rcvdPkFromHL:sum(packetBytes) 	0
attr interpolationmode  none
attr source  packetReceivedFromUpper
attr title  "packets received from higher layer, sum(packetBytes)"
scalar car_host_40.hostB.lo0.lo 	passedUpPk:count 	0
attr interpolationmode  none
attr source  packetSentToUpper
attr title  "packets passed to higher layer, count"
scalar car_host_40.hostB.lo0.lo 	passedUpPk:sum(packetBytes) 	0
attr interpolationmode  none
attr source  packetSentToUpper
attr title  "packets passed to higher layer, sum(packetBytes)"
scalar car_host_40.hostB.wlan[0].mac 	numRetry 	0
scalar car_host_40.hostB.wlan[0].mac 	numSentWithoutRetry 	0
scalar car_host_40.hostB.wlan[0].mac 	numGivenUp 	0
scalar car_host_40.hostB.wlan[0].mac 	numCollision 	39
scalar car_host_40.hostB.wlan[0].mac 	numSent 	623
scalar car_host_40.hostB.wlan[0].mac 	numReceived 	623
scalar car_host_40.hostB.wlan[0].mac 	numSentBroadcast 	3
scalar car_host_40.hostB.wlan[0].mac 	numReceivedBroadcast 	29
statistic car_host_40.hostB.wlan[0].radio 	symbolErrorRate:histogram
field count 1314
field mean 0.00016469072696332
field stddev 0.0022509264504717
field sum 0.2164036152298
field sqrsum 0.0066881772282831
field min 2.700504120744e-025
field max 0.054273736114068
attr source  symbolErrorRate
attr title  "Symbol error rate, histogram"
bin	-INF	0
bin	-0.027136868057034	0
bin	-0.023518618982763	0
bin	-0.019900369908492	0
bin	-0.01628212083422	0
bin	-0.012663871759949	0
bin	-0.009045622685678	0
bin	-0.0054273736114068	0
bin	-0.0018091245371356	1303
bin	0.0018091245371356	3
bin	0.0054273736114068	1
bin	0.009045622685678	1
bin	0.012663871759949	0
bin	0.01628212083422	3
bin	0.019900369908492	1
bin	0.023518618982763	0
bin	0.027136868057034	0
bin	0.030755117131305	0
bin	0.034373366205576	0
bin	0.037991615279847	0
bin	0.041609864354119	1
bin	0.04522811342839	0
bin	0.048846362502661	0
bin	0.052464611576932	1
bin	0.056082860651203	0
bin	0.059701109725475	0
bin	0.063319358799746	0
bin	0.066937607874017	0
bin	0.070555856948288	0
bin	0.074174106022559	0
bin	0.07779235509683	0
bin	0.081410604171102	0
statistic car_host_40.hostB.wlan[0].radio 	bitErrorRate:histogram
field count 1314
field mean 0.00016469072696332
field stddev 0.0022509264504717
field sum 0.2164036152298
field sqrsum 0.0066881772282831
field min 2.700504120744e-025
field max 0.054273736114068
attr source  bitErrorRate
attr title  "Bit error rate, histogram"
bin	-INF	0
bin	-0.027136868057034	0
bin	-0.023518618982763	0
bin	-0.019900369908492	0
bin	-0.01628212083422	0
bin	-0.012663871759949	0
bin	-0.009045622685678	0
bin	-0.0054273736114068	0
bin	-0.0018091245371356	1303
bin	0.0018091245371356	3
bin	0.0054273736114068	1
bin	0.009045622685678	1
bin	0.012663871759949	0
bin	0.01628212083422	3
bin	0.019900369908492	1
bin	0.023518618982763	0
bin	0.027136868057034	0
bin	0.030755117131305	0
bin	0.034373366205576	0
bin	0.037991615279847	0
bin	0.041609864354119	1
bin	0.04522811342839	0
bin	0.048846362502661	0
bin	0.052464611576932	1
bin	0.056082860651203	0
bin	0.059701109725475	0
bin	0.063319358799746	0
bin	0.066937607874017	0
bin	0.070555856948288	0
bin	0.074174106022559	0
bin	0.07779235509683	0
bin	0.081410604171102	0
statistic car_host_40.hostB.wlan[0].radio 	packetErrorRate:histogram
field count 1314
field mean 0.026068903979682
field stddev 0.11365656250216
field sum 34.254539829302
field sqrsum 17.854068354025
field min 0
field max 0.99999999999767
attr source  packetErrorRate
attr title  "Packet error rate, histogram"
bin	-INF	0
bin	-0.49999999999883	0
bin	-0.43333333333232	0
bin	-0.36666666666581	0
bin	-0.2999999999993	0
bin	-0.23333333333279	0
bin	-0.16666666666628	0
bin	-0.099999999999767	0
bin	-0.033333333333256	1291
bin	0.033333333333256	2
bin	0.099999999999767	0
bin	0.16666666666628	0
bin	0.23333333333279	0
bin	0.2999999999993	2
bin	0.36666666666581	0
bin	0.43333333333232	0
bin	0.49999999999883	1
bin	0.56666666666535	0
bin	0.63333333333186	0
bin	0.69999999999837	0
bin	0.76666666666488	1
bin	0.83333333333139	1
bin	0.8999999999979	2
bin	0.96666666666441	14
bin	1.0333333333309	0
bin	1.0999999999974	0
bin	1.1666666666639	0
bin	1.2333333333305	0
bin	1.299999999997	0
bin	1.3666666666635	0
bin	1.43333333333	0
bin	1.4999999999965	0
statistic car_host_40.hostB.wlan[0].radio 	minSNIR:histogram
field count 1314
field mean 13.551024961369
field stddev 8.8271363867939
field sum 17806.046799239
field sqrsum 343596.96084645
field min 0.64381060193383
field max 26.654230110527
attr source  minSNIR
attr title  "Min SNIR, histogram"
bin	-INF	0
bin	-12.361399152363	0
bin	-10.627371185123	0
bin	-8.8933432178838	0
bin	-7.1593152506443	0
bin	-5.4252872834047	0
bin	-3.6912593161651	0
bin	-1.9572313489255	0
bin	-0.22320338168596	7
bin	1.5108245855536	15
bin	3.2448525527932	6
bin	4.9788805200328	646
bin	6.7129084872723	2
bin	8.4469364545119	3
bin	10.180964421751	0
bin	11.914992388991	2
bin	13.649020356231	1
bin	15.38304832347	2
bin	17.11707629071	0
bin	18.851104257949	0
bin	20.585132225189	1
bin	22.319160192429	628
bin	24.053188159668	0
bin	25.787216126908	1
bin	27.521244094147	0
bin	29.255272061387	0
bin	30.989300028626	0
bin	32.723327995866	0
bin	34.457355963106	0
bin	36.191383930345	0
bin	37.925411897585	0
bin	39.659439864824	0
scalar car_host_40.hostB.wlan[0].radio 	transmissionState:count 	2504
attr interpolationmode  sample-hold
attr source  transmissionStateChanged
attr title  "Radio transmission state, count"
scalar car_host_40.hostB.wlan[0].radio 	receptionState:count 	6230
attr interpolationmode  sample-hold
attr source  receptionStateChanged
attr title  "Radio reception state, count"
scalar car_host_40.hostB.wlan[0].radio 	radioMode:count 	1254
attr interpolationmode  sample-hold
attr source  radioModeChanged
attr title  "Radio mode, count"
scalar car_host_40.hostC.lo0.lo 	droppedPkBitError:count 	0
attr interpolationmode  none
attr source  dropPkBitError
attr title  "packets dropped/bit error, count"
scalar car_host_40.hostC.lo0.lo 	droppedPkBitError:sum(packetBytes) 	0
attr interpolationmode  none
attr source  dropPkBitError
attr title  "packets dropped/bit error, sum(packetBytes)"
scalar car_host_40.hostC.lo0.lo 	rcvdPkFromHL:count 	0
attr interpolationmode  none
attr source  packetReceivedFromUpper
attr title  "packets received from higher layer, count"
scalar car_host_40.hostC.lo0.lo 	rcvdPkFromHL:sum(packetBytes) 	0
attr interpolationmode  none
attr source  packetReceivedFromUpper
attr title  "packets received from higher layer, sum(packetBytes)"
scalar car_host_40.hostC.lo0.lo 	passedUpPk:count 	0
attr interpolationmode  none
attr source  packetSentToUpper
attr title  "packets passed to higher layer, count"
scalar car_host_40.hostC.lo0.lo 	passedUpPk:sum(packetBytes) 	0
attr interpolationmode  none
attr source  packetSentToUpper
attr title  "packets passed to higher layer, sum(packetBytes)"
scalar car_host_40.hostC.wlan[0].mac 	numRetry 	0
scalar car_host_40.hostC.wlan[0].mac 	numSentWithoutRetry 	0
scalar car_host_40.hostC.wlan[0].mac 	numGivenUp 	0
scalar car_host_40.hostC.wlan[0].mac 	numCollision 	520
scalar car_host_40.hostC.wlan[0].mac 	numSent 	0
scalar car_host_40.hostC.wlan[0].mac 	numReceived 	0
scalar car_host_40.hostC.wlan[0].mac 	numSentBroadcast 	3
scalar car_host_40.hostC.wlan[0].mac 	numReceivedBroadcast 	34
statistic car_host_40.hostC.wlan[0].radio 	symbolErrorRate:histogram
field count 1802
field mean 0.00066469621639526
field stddev 0.0046685702317552
field sum 1.1977825819443
field sqrsum 0.040049943514187
field min 1.0410809724929e-032
field max 0.15803726695791
attr source  symbolErrorRate
attr title  "Symbol error rate, histogram"
bin	-INF	0
bin	-0.079018633478956	0
bin	-0.068482815681762	0
bin	-0.057946997884568	0
bin	-0.047411180087374	0
bin	-0.03687536229018	0
bin	-0.026339544492985	0
bin	-0.015803726695791	0
bin	-0.0052679088985971	1794
bin	0.0052679088985971	4
bin	0.015803726695791	0
bin	0.026339544492985	0
bin	0.03687536229018	1
bin	0.047411180087374	0
bin	0.057946997884568	1
bin	0.068482815681762	0
bin	0.079018633478956	1
bin	0.08955445127615	0
bin	0.10009026907334	0
bin	0.11062608687054	0
bin	0.12116190466773	0
bin	0.13169772246493	0
bin	0.14223354026212	0
bin	0.15276935805932	1
bin	0.16330517585651	0
bin	0.1738409936537	0
bin	0.1843768114509	0
bin	0.19491262924809	0
bin	0.20544844704529	0
bin	0.21598426484248	0
bin	0.22652008263967	0
bin	0.23705590043687	0
statistic car_host_40.hostC.wlan[0].radio 	bitErrorRate:histogram
field count 1802
field mean 0.00066469621639526
field stddev 0.0046685702317552
field sum 1.1977825819443
field sqrsum 0.040049943514187
field min 1.0410809724929e-032
field max 0.15803726695791
attr source  bitErrorRate
attr title  "Bit error rate, histogram"
bin	-INF	0
bin	-0.079018633478956	0
bin	-0.068482815681762	0
bin	-0.057946997884568	0
bin	-0.047411180087374	0
bin	-0.03687536229018	0
bin	-0.026339544492985	0
bin	-0.015803726695791	0
bin	-0.0052679088985971	1794
bin	0.0052679088985971	4
bin	0.015803726695791	0
bin	0.026339544492985	0
bin	0.03687536229018	1
bin	0.047411180087374	0
bin	0.057946997884568	1
bin	0.068482815681762	0
bin	0.079018633478956	1
bin	0.08955445127615	0
bin	0.10009026907334	0
bin	0.11062608687054	0
bin	0.12116190466773	0
bin	0.13169772246493	0
bin	0.14223354026212	0
bin	0.15276935805932	1
bin	0.16330517585651	0
bin	0.1738409936537	0
bin	0.1843768114509	0
bin	0.19491262924809	0
bin	0.20544844704529	0
bin	0.21598426484248	0
bin	0.22652008263967	0
bin	0.23705590043687	0
statistic car_host_40.hostC.wlan[0].radio 	packetErrorRate:histogram
field count 1802
field mean 0.28786616041751
field stddev 0.45143234145066
field sum 518.73482107234
field sqrsum 516.35407840959
field min 0
field max 1
attr source  packetErrorRate
attr title  "Packet error rate, histogram"
bin	-INF	0
bin	-0.5	0
bin	-0.43333333333333	0
bin	-0.36666666666667	0
bin	-0.3	0
bin	-0.23333333333333	0
bin	-0.16666666666667	0
bin	-0.1	0
bin	-0.033333333333333	1272
bin	0.033333333333333	7
bin	0.1	0
bin	0.16666666666667	0
bin	0.23333333333333	2
bin	0.3	1
bin	0.36666666666667	1
bin	0.43333333333333	2
bin	0.5	1
bin	0.56666666666667	1
bin	0.63333333333333	0
bin	0.7	0
bin	0.76666666666667	0
bin	0.83333333333333	0
bin	0.9	1
bin	0.96666666666667	514
bin	1.0333333333333	0
bin	1.1	0
bin	1.1666666666667	0
bin	1.2333333333333	0
bin	1.3	0
bin	1.3666666666667	0
bin	1.4333333333333	0
bin	1.5	0
statistic car_host_40.hostC.wlan[0].radio 	minSNIR:histogram
field count 1802
field mean 17.29882196193
field stddev 13.658439357903
field sum 31172.477175398
field sqrsum 875229.02398356
field min 0.25128025681737
field max 35.121984220871
attr source  minSNIR
attr title  "Min SNIR, histogram"
bin	-INF	0
bin	-17.18407172521	0
bin	-14.859358127606	0
bin	-12.534644530002	0
bin	-10.209930932399	0
bin	-7.8852173347952	0
bin	-5.5605037371916	0
bin	-3.235790139588	0
bin	-0.91107654198443	4
bin	1.4136370556192	526
bin	3.7383506532228	11
bin	6.0630642508264	5
bin	8.38777784843	0
bin	10.712491446034	625
bin	13.037205043637	1
bin	15.361918641241	2
bin	17.686632238844	2
bin	20.011345836448	0
bin	22.336059434052	0
bin	24.660773031655	1
bin	26.985486629259	0
bin	29.310200226862	0
bin	31.634913824466	0
bin	33.95962742207	625
bin	36.284341019673	0
bin	38.609054617277	0
bin	40.93376821488	0
bin	43.258481812484	0
bin	45.583195410088	0
bin	47.907909007691	0
bin	50.232622605295	0
bin	52.557336202898	0
scalar car_host_40.hostC.wlan[0].radio 	transmissionState:count 	12
attr interpolationmode  sample-hold
attr source  transmissionStateChanged
attr title  "Radio transmission state, count"
scalar car_host_40.hostC.wlan[0].radio 	receptionState:count 	5921
attr interpolationmode  sample-hold
attr source  receptionStateChanged
attr title  "Radio reception state, count"
scalar car_host_40.hostC.wlan[0].radio 	radioMode:count 	8
attr interpolationmode  sample-hold
attr source  radioModeChanged
attr title  "Radio mode, count"
scalar car_host_40.hostB1.lo0.lo 	droppedPkBitError:count 	0
attr interpolationmode  none
attr source  dropPkBitError
attr title  "packets dropped/bit error, count"
scalar car_host_40.hostB1.lo0.lo 	droppedPkBitError:sum(packetBytes) 	0
attr interpolationmode  none
attr source  dropPkBitError
attr title  "packets dropped/bit error, sum(packetBytes)"
scalar car_host_40.hostB1.lo0.lo 	rcvdPkFromHL:count 	0
attr interpolationmode  none
attr source  packetReceivedFromUpper
attr title  "packets received from higher layer, count"
scalar car_host_40.hostB1.lo0.lo 	rcvdPkFromHL:sum(packetBytes) 	0
attr interpolationmode  none
attr source  packetReceivedFromUpper
attr title  "packets received from higher layer, sum(packetBytes)"
scalar car_host_40.hostB1.lo0.lo 	passedUpPk:count 	0
attr interpolationmode  none
attr source  packetSentToUpper
attr title  "packets passed to higher layer, count"
scalar car_host_40.hostB1.lo0.lo 	passedUpPk:sum(packetBytes) 	0
attr interpolationmode  none
attr source  packetSentToUpper
attr title  "packets passed to higher layer, sum(packetBytes)"
scalar car_host_40.hostB1.wlan[0].mac 	numRetry 	0
scalar car_host_40.hostB1.wlan[0].mac 	numSentWithoutRetry 	0
scalar car_host_40.hostB1.wlan[0].mac 	numGivenUp 	0
scalar car_host_40.hostB1.wlan[0].mac 	numCollision 	242
scalar car_host_40.hostB1.wlan[0].mac 	numSent 	0
scalar car_host_40.hostB1.wlan[0].mac 	numReceived 	0
scalar car_host_40.hostB1.wlan[0].mac 	numSentBroadcast 	4
scalar car_host_40.hostB1.wlan[0].mac 	numReceivedBroadcast 	29
statistic car_host_40.hostB1.wlan[0].radio 	symbolErrorRate:histogram
field count 2507
field mean 0.00034690379805027
field stddev 0.0069610166759073
field sum 0.86968782171202
field sqrsum 0.12173181543309
field min 1.7054564688261e-023
field max 0.16950614282061
attr source  symbolErrorRate
attr title  "Symbol error rate, histogram"
bin	-INF	0
bin	-0.084753071410307	0
bin	-0.073452661888933	0
bin	-0.062152252367559	0
bin	-0.050851842846184	0
bin	-0.03955143332481	0
bin	-0.028251023803436	0
bin	-0.016950614282061	0
bin	-0.0056502047606872	2499
bin	0.0056502047606871	0
bin	0.016950614282061	1
bin	0.028251023803436	1
bin	0.03955143332481	1
bin	0.050851842846184	1
bin	0.062152252367559	0
bin	0.073452661888933	0
bin	0.084753071410307	0
bin	0.096053480931682	0
bin	0.10735389045306	0
bin	0.11865429997443	0
bin	0.1299547094958	0
bin	0.14125511901718	0
bin	0.15255552853855	0
bin	0.16385593805993	4
bin	0.1751563475813	0
bin	0.18645675710268	0
bin	0.19775716662405	0
bin	0.20905757614542	0
bin	0.2203579856668	0
bin	0.23165839518817	0
bin	0.24295880470955	0
bin	0.25425921423092	0
statistic car_host_40.hostB1.wlan[0].radio 	bitErrorRate:histogram
field count 2507
field mean 0.00034690379805027
field stddev 0.0069610166759073
field sum 0.86968782171202
field sqrsum 0.12173181543309
field min 1.7054564688261e-023
field max 0.16950614282061
attr source  bitErrorRate
attr title  "Bit error rate, histogram"
bin	-INF	0
bin	-0.084753071410307	0
bin	-0.073452661888933	0
bin	-0.062152252367559	0
bin	-0.050851842846184	0
bin	-0.03955143332481	0
bin	-0.028251023803436	0
bin	-0.016950614282061	0
bin	-0.0056502047606872	2499
bin	0.0056502047606871	0
bin	0.016950614282061	1
bin	0.028251023803436	1
bin	0.03955143332481	1
bin	0.050851842846184	1
bin	0.062152252367559	0
bin	0.073452661888933	0
bin	0.084753071410307	0
bin	0.096053480931682	0
bin	0.10735389045306	0
bin	0.11865429997443	0
bin	0.1299547094958	0
bin	0.14125511901718	0
bin	0.15255552853855	0
bin	0.16385593805993	4
bin	0.1751563475813	0
bin	0.18645675710268	0
bin	0.19775716662405	0
bin	0.20905757614542	0
bin	0.2203579856668	0
bin	0.23165839518817	0
bin	0.24295880470955	0
bin	0.25425921423092	0
statistic car_host_40.hostB1.wlan[0].radio 	packetErrorRate:histogram
field count 2507
field mean 0.089689126486654
field stddev 0.15600184203586
field sum 224.85064010204
field sqrsum 81.154113745484
field min 0
field max 1
attr source  packetErrorRate
attr title  "Packet error rate, histogram"
bin	-INF	0
bin	-0.5	0
bin	-0.43333333333333	0
bin	-0.36666666666667	0
bin	-0.3	0
bin	-0.23333333333333	0
bin	-0.16666666666667	0
bin	-0.1	0
bin	-0.033333333333333	1848
bin	0.033333333333333	2
bin	0.1	3
bin	0.16666666666667	0
bin	0.23333333333333	0
bin	0.3	640
bin	0.36666666666667	0
bin	0.43333333333333	1
bin	0.5	0
bin	0.56666666666667	1
bin	0.63333333333333	0
bin	0.7	4
bin	0.76666666666667	0
bin	0.83333333333333	0
bin	0.9	0
bin	0.96666666666667	8
bin	1.0333333333333	0
bin	1.1	0
bin	1.1666666666667	0
bin	1.2333333333333	0
bin	1.3	0
bin	1.3666666666667	0
bin	1.4333333333333	0
bin	1.5	0
statistic car_host_40.hostB1.wlan[0].radio 	minSNIR:histogram
field count 2507
field mean 12.34481013583
field stddev 5.9370925358954
field sum 30948.439010526
field sqrsum 470386.7674414
field min 0.22854072557886
field max 24.601113362982
attr source  minSNIR
attr title  "Min SNIR, histogram"
bin	-INF	0
bin	-11.957745593123	0
bin	-10.332907417296	0
bin	-8.708069241469	0
bin	-7.0832310656421	0
bin	-5.4583928898152	0
bin	-3.8335547139883	0
bin	-2.2087165381615	0
bin	-0.58387836233458	7
bin	1.0409598134923	3
bin	2.6657979893192	654
bin	4.2906361651461	1
bin	5.9154743409729	0
bin	7.5403125167998	1
bin	9.1651506926267	509
bin	10.789988868454	5
bin	12.41482704428	0
bin	14.039665220107	706
bin	15.664503395934	0
bin	17.289341571761	0
bin	18.914179747588	616
bin	20.539017923415	0
bin	22.163856099242	2
bin	23.788694275069	3
bin	25.413532450895	0
bin	27.038370626722	0
bin	28.663208802549	0
bin	30.288046978376	0
bin	31.912885154203	0
bin	33.53772333003	0
bin	35.162561505857	0
bin	36.787399681684	0
scalar car_host_40.hostB1.wlan[0].radio 	transmissionState:count 	16
attr interpolationmode  sample-hold
attr source  transmissionStateChanged
attr title  "Radio transmission state, count"
scalar car_host_40.hostB1.wlan[0].radio 	receptionState:count 	5052
attr interpolationmode  sample-hold
attr source  receptionStateChanged
attr title  "Radio reception state, count"
scalar car_host_40.hostB1.wlan[0].radio 	radioMode:count 	10
attr interpolationmode  sample-hold
attr source  radioModeChanged
attr title  "Radio mode, count"
scalar car_host_40.hostB2.lo0.lo 	droppedPkBitError:count 	0
attr interpolationmode  none
attr source  dropPkBitError
attr title  "packets dropped/bit error, count"
scalar car_host_40.hostB2.lo0.lo 	droppedPkBitError:sum(packetBytes) 	0
attr interpolationmode  none
attr source  dropPkBitError
attr title  "packets dropped/bit error, sum(packetBytes)"
scalar car_host_40.hostB2.lo0.lo 	rcvdPkFromHL:count 	0
attr interpolationmode  none
attr source  packetReceivedFromUpper
attr title  "packets received from higher layer, count"
scalar car_host_40.hostB2.lo0.lo 	rcvdPkFromHL:sum(packetBytes) 	0
attr interpolationmode  none
attr source  packetReceivedFromUpper
attr title  "packets received from higher layer, sum(packetBytes)"
scalar car_host_40.hostB2.lo0.lo 	passedUpPk:count 	0
attr interpolationmode  none
attr source  packetSentToUpper
attr title  "packets passed to higher layer, count"
scalar car_host_40.hostB2.lo0.lo 	passedUpPk:sum(packetBytes) 	0
attr interpolationmode  none
attr source  packetSentToUpper
attr title  "packets passed to higher layer, sum(packetBytes)"
scalar car_host_40.hostB2.wlan[0].mac 	numRetry 	0
scalar car_host_40.hostB2.wlan[0].mac 	numSentWithoutRetry 	0
scalar car_host_40.hostB2.wlan[0].mac 	numGivenUp 	0
scalar car_host_40.hostB2.wlan[0].mac 	numCollision 	10
scalar car_host_40.hostB2.wlan[0].mac 	numSent 	0
scalar car_host_40.hostB2.wlan[0].mac 	numReceived 	0
scalar car_host_40.hostB2.wlan[0].mac 	numSentBroadcast 	3
scalar car_host_40.hostB2.wlan[0].mac 	numReceivedBroadcast 	35
statistic car_host_40.hostB2.wlan[0].radio 	symbolErrorRate:histogram
field count 1964
field mean 0.00028797137541528
field stddev 0.006007091143209
field sum 0.5655757813156
field sqrsum 0.070998007313183
field min 5.759915431149e-028
field max 0.21151487275504
attr source  symbolErrorRate
attr title  "Symbol error rate, histogram"
bin	-INF	0
bin	-0.10575743637752	0
bin	-0.091656444860516	0
bin	-0.077555453343513	0
bin	-0.063454461826511	0
bin	-0.049353470309508	0
bin	-0.035252478792506	0
bin	-0.021151487275504	0
bin	-0.0070504957585012	1958
bin	0.0070504957585012	0
bin	0.021151487275504	0
bin	0.035252478792506	1
bin	0.049353470309508	1
bin	0.063454461826511	2
bin	0.077555453343513	0
bin	0.091656444860516	0
bin	0.10575743637752	1
bin	0.11985842789452	0
bin	0.13395941941152	0
bin	0.14806041092853	0
bin	0.16216140244553	0
bin	0.17626239396253	0
bin	0.19036338547953	0
bin	0.20446437699654	1
bin	0.21856536851354	0
bin	0.23266636003054	0
bin	0.24676735154754	0
bin	0.26086834306454	0
bin	0.27496933458155	0
bin	0.28907032609855	0
bin	0.30317131761555	0
bin	0.31727230913255	0
statistic car_host_40.hostB2.wlan[0].radio 	bitErrorRate:histogram
field count 1964
field mean 0.00028797137541528
field stddev 0.006007091143209
field sum 0.5655757813156
field sqrsum 0.070998007313183
field min 5.759915431149e-028
field max 0.21151487275504
attr source  bitErrorRate
attr title  "Bit error rate, histogram"
bin	-INF	0
bin	-0.10575743637752	0
bin	-0.091656444860516	0
bin	-0.077555453343513	0
bin	-0.063454461826511	0
bin	-0.049353470309508	0
bin	-0.035252478792506	0
bin	-0.021151487275504	0
bin	-0.0070504957585012	1958
bin	0.0070504957585012	0
bin	0.021151487275504	0
bin	0.035252478792506	1
bin	0.049353470309508	1
bin	0.063454461826511	2
bin	0.077555453343513	0
bin	0.091656444860516	0
bin	0.10575743637752	1
bin	0.11985842789452	0
bin	0.13395941941152	0
bin	0.14806041092853	0
bin	0.16216140244553	0
bin	0.17626239396253	0
bin	0.19036338547953	0
bin	0.20446437699654	1
bin	0.21856536851354	0
bin	0.23266636003054	0
bin	0.24676735154754	0
bin	0.26086834306454	0
bin	0.27496933458155	0
bin	0.28907032609855	0
bin	0.30317131761555	0
bin	0.31727230913255	0
statistic car_host_40.hostB2.wlan[0].radio 	packetErrorRate:histogram
field count 1964
field mean 0.0049572362636684
field stddev 0.064887003859959
field sum 9.7360120218448
field sqrsum 8.3131282907157
field min 0
field max 1
attr source  packetErrorRate
attr title  "Packet error rate, histogram"
bin	-INF	0
bin	-0.5	0
bin	-0.43333333333333	0
bin	-0.36666666666667	0
bin	-0.3	0
bin	-0.23333333333333	0
bin	-0.16666666666667	0
bin	-0.1	0
bin	-0.033333333333333	1952
bin	0.033333333333333	0
bin	0.1	1
bin	0.16666666666667	2
bin	0.23333333333333	0
bin	0.3	0
bin	0.36666666666667	0
bin	0.43333333333333	0
bin	0.5	0
bin	0.56666666666667	0
bin	0.63333333333333	1
bin	0.7	0
bin	0.76666666666667	0
bin	0.83333333333333	0
bin	0.9	2
bin	0.96666666666667	6
bin	1.0333333333333	0
bin	1.1	0
bin	1.1666666666667	0
bin	1.2333333333333	0
bin	1.3	0
bin	1.3666666666667	0
bin	1.4333333333333	0
bin	1.5	0
statistic car_host_40.hostB2.wlan[0].radio 	minSNIR:histogram
field count 1964
field mean 18.346926760802
field stddev 9.5003962391038
field sum 36033.364158215
field sqrsum 838277.02199413
field min 0.16047075798664
field max 29.702753824485
attr source  minSNIR
attr title  "Min SNIR, histogram"
bin	-INF	0
bin	-14.610670775263	0
bin	-12.641185237496	0
bin	-10.67169969973	0
bin	-8.702214161963	0
bin	-6.7327286241964	0
bin	-4.7632430864298	0
bin	-2.7937575486632	0
bin	-0.82427201089665	6
bin	1.1452135268699	6
bin	3.1146990646365	8
bin	5.0841846024031	634
bin	7.0536701401697	1
bin	9.0231556779363	8
bin	10.992641215703	35
bin	12.962126753469	2
bin	14.931612291236	0
bin	16.901097829003	2
bin	18.870583366769	616
bin	20.840068904536	0
bin	22.809554442302	0
bin	24.779039980069	0
bin	26.748525517836	3
bin	28.718011055602	643
bin	30.687496593369	0
bin	32.656982131135	0
bin	34.626467668902	0
bin	36.595953206668	0
bin	38.565438744435	0
bin	40.534924282202	0
bin	42.504409819968	0
bin	44.473895357735	0
scalar car_host_40.hostB2.wlan[0].radio 	transmissionState:count 	12
attr interpolationmode  sample-hold
attr source  transmissionStateChanged
attr title  "Radio transmission state, count"
scalar car_host_40.hostB2.wlan[0].radio 	receptionState:count 	7578
attr interpolationmode  sample-hold
attr source  receptionStateChanged
attr title  "Radio reception state, count"
scalar car_host_40.hostB2.wlan[0].radio 	radioMode:count 	8
attr interpolationmode  sample-hold
attr source  radioModeChanged
attr title  "Radio mode, count"
scalar car_host_40.hostB3.lo0.lo 	droppedPkBitError:count 	0
attr interpolationmode  none
attr source  dropPkBitError
attr title  "packets dropped/bit error, count"
scalar car_host_40.hostB3.lo0.lo 	droppedPkBitError:sum(packetBytes) 	0
attr interpolationmode  none
attr source  dropPkBitError
attr title  "packets dropped/bit error, sum(packetBytes)"
scalar car_host_40.hostB3.lo0.lo 	rcvdPkFromHL:count 	0
attr interpolationmode  none
attr source  packetReceivedFromUpper
attr title  "packets received from higher layer, count"
scalar car_host_40.hostB3.lo0.lo 	rcvdPkFromHL:sum(packetBytes) 	0
attr interpolationmode  none
attr source  packetReceivedFromUpper
attr title  "packets received from higher layer, sum(packetBytes)"
scalar car_host_40.hostB3.lo0.lo 	passedUpPk:count 	0
attr interpolationmode  none
attr source  packetSentToUpper
attr title  "packets passed to higher layer, count"
scalar car_host_40.hostB3.lo0.lo 	passedUpPk:sum(packetBytes) 	0
attr interpolationmode  none
attr source  packetSentToUpper
attr title  "packets passed to higher layer, sum(packetBytes)"
scalar car_host_40.hostB3.wlan[0].mac 	numRetry 	0
scalar car_host_40.hostB3.wlan[0].mac 	numSentWithoutRetry 	0
scalar car_host_40.hostB3.wlan[0].mac 	numGivenUp 	0
scalar car_host_40.hostB3.wlan[0].mac 	numCollision 	36
scalar car_host_40.hostB3.wlan[0].mac 	numSent 	0
scalar car_host_40.hostB3.wlan[0].mac 	numReceived 	0
scalar car_host_40.hostB3.wlan[0].mac 	numSentBroadcast 	3
scalar car_host_40.hostB3.wlan[0].mac 	numReceivedBroadcast 	35
statistic car_host_40.hostB3.wlan[0].radio 	symbolErrorRate:histogram
field count 1965
field mean 0.00029443291211914
field stddev 0.0066509037349976
field sum 0.57856067231411
field sqrsum 0.087046945550278
field min 6.966044874254e-024
field max 0.21353252055668
attr source  symbolErrorRate
attr title  "Symbol error rate, histogram"
bin	-INF	0
bin	-0.10676626027834	0
bin	-0.092530758907896	0
bin	-0.078295257537451	0
bin	-0.064059756167005	0
bin	-0.049824254796559	0
bin	-0.035588753426114	0
bin	-0.021353252055668	0
bin	-0.0071177506852228	1957
bin	0.0071177506852228	3
bin	0.021353252055668	2
bin	0.035588753426114	1
bin	0.049824254796559	0
bin	0.064059756167005	0
bin	0.078295257537451	0
bin	0.092530758907896	0
bin	0.10676626027834	0
bin	0.12100176164879	0
bin	0.13523726301923	0
bin	0.14947276438968	0
bin	0.16370826576012	0
bin	0.17794376713057	0
bin	0.19217926850101	1
bin	0.20641476987146	1
bin	0.22065027124191	0
bin	0.23488577261235	0
bin	0.2491212739828	0
bin	0.26335677535324	0
bin	0.27759227672369	0
bin	0.29182777809413	0
bin	0.30606327946458	0
bin	0.32029878083502	0
statistic car_host_40.hostB3.wlan[0].radio 	bitErrorRate:histogram
field count 1965
field mean 0.00029443291211914
field stddev 0.0066509037349976
field sum 0.57856067231411
field sqrsum 0.087046945550278
field min 6.966044874254e-024
field max 0.21353252055668
attr source  bitErrorRate
attr title  "Bit error rate, histogram"
bin	-INF	0
bin	-0.10676626027834	0
bin	-0.092530758907896	0
bin	-0.078295257537451	0
bin	-0.064059756167005	0
bin	-0.049824254796559	0
bin	-0.035588753426114	0
bin	-0.021353252055668	0
bin	-0.0071177506852228	1957
bin	0.0071177506852228	3
bin	0.021353252055668	2
bin	0.035588753426114	1
bin	0.049824254796559	0
bin	0.064059756167005	0
bin	0.078295257537451	0
bin	0.092530758907896	0
bin	0.10676626027834	0
bin	0.12100176164879	0
bin	0.13523726301923	0
bin	0.14947276438968	0
bin	0.16370826576012	0
bin	0.17794376713057	0
bin	0.19217926850101	1
bin	0.20641476987146	1
bin	0.22065027124191	0
bin	0.23488577261235	0
bin	0.2491212739828	0
bin	0.26335677535324	0
bin	0.27759227672369	0
bin	0.29182777809413	0
bin	0.30606327946458	0
bin	0.32029878083502	0
statistic car_host_40.hostB3.wlan[0].radio 	packetErrorRate:histogram
field count 1965
field mean 0.01609124722487
field stddev 0.092638175359182
field sum 31.619300796869
field sqrsum 17.363511118738
field min 0
field max 1
attr source  packetErrorRate
attr title  "Packet error rate, histogram"
bin	-INF	0
bin	-0.5	0
bin	-0.43333333333333	0
bin	-0.36666666666667	0
bin	-0.3	0
bin	-0.23333333333333	0
bin	-0.16666666666667	0
bin	-0.1	0
bin	-0.033333333333333	1939
bin	0.033333333333333	7
bin	0.1	0
bin	0.16666666666667	0
bin	0.23333333333333	0
bin	0.3	0
bin	0.36666666666667	0
bin	0.43333333333333	1
bin	0.5	0
bin	0.56666666666667	1
bin	0.63333333333333	0
bin	0.7	0
bin	0.76666666666667	1
bin	0.83333333333333	0
bin	0.9	0
bin	0.96666666666667	16
bin	1.0333333333333	0
bin	1.1	0
bin	1.1666666666667	0
bin	1.2333333333333	0
bin	1.3	0
bin	1.3666666666667	0
bin	1.4333333333333	0
bin	1.5	0
statistic car_host_40.hostB3.wlan[0].radio 	minSNIR:histogram
field count 1965
field mean 6.8242448144964
field stddev 2.0188759159632
field sum 13409.641060485
field sqrsum 99515.662440682
field min 0.15769793912069
field max 25.04441938908
attr source  minSNIR
attr title  "Min SNIR, histogram"
bin	-INF	0
bin	-12.285662785859	0
bin	-10.626548022528	0
bin	-8.9674332591976	0
bin	-7.308318495867	0
bin	-5.6492037325364	0
bin	-3.9900889692058	0
bin	-2.3309742058752	0
bin	-0.67185944254461	4
bin	0.98725532078598	14
bin	2.6463700841166	10
bin	4.3054848474472	1270
bin	5.9645996107777	40
bin	7.6237143741083	1
bin	9.2828291374389	621
bin	10.94194390077	0
bin	12.6010586641	0
bin	14.260173427431	0
bin	15.919288190761	0
bin	17.578402954092	0
bin	19.237517717422	3
bin	20.896632480753	0
bin	22.555747244084	0
bin	24.214862007414	2
bin	25.873976770745	0
bin	27.533091534075	0
bin	29.192206297406	0
bin	30.851321060737	0
bin	32.510435824067	0
bin	34.169550587398	0
bin	35.828665350728	0
bin	37.487780114059	0
scalar car_host_40.hostB3.wlan[0].radio 	transmissionState:count 	12
attr interpolationmode  sample-hold
attr source  transmissionStateChanged
attr title  "Radio transmission state, count"
scalar car_host_40.hostB3.wlan[0].radio 	receptionState:count 	7583
attr interpolationmode  sample-hold
attr source  receptionStateChanged
attr title  "Radio reception state, count"
scalar car_host_40.hostB3.wlan[0].radio 	radioMode:count 	8
attr interpolationmode  sample-hold
attr source  radioModeChanged
attr title  "Radio mode, count"
scalar car_host_40.hostB4.lo0.lo 	droppedPkBitError:count 	0
attr interpolationmode  none
attr source  dropPkBitError
attr title  "packets dropped/bit error, count"
scalar car_host_40.hostB4.lo0.lo 	droppedPkBitError:sum(packetBytes) 	0
attr interpolationmode  none
attr source  dropPkBitError
attr title  "packets dropped/bit error, sum(packetBytes)"
scalar car_host_40.hostB4.lo0.lo 	rcvdPkFromHL:count 	0
attr interpolationmode  none
attr source  packetReceivedFromUpper
attr title  "packets received from higher layer, count"
scalar car_host_40.hostB4.lo0.lo 	rcvdPkFromHL:sum(packetBytes) 	0
attr interpolationmode  none
attr source  packetReceivedFromUpper
attr title  "packets received from higher layer, sum(packetBytes)"
scalar car_host_40.hostB4.lo0.lo 	passedUpPk:count 	0
attr interpolationmode  none
attr source  packetSentToUpper
attr title  "packets passed to higher layer, count"
scalar car_host_40.hostB4.lo0.lo 	passedUpPk:sum(packetBytes) 	0
attr interpolationmode  none
attr source  packetSentToUpper
attr title  "packets passed to higher layer, sum(packetBytes)"
scalar car_host_40.hostB4.wlan[0].mac 	numRetry 	0
scalar car_host_40.hostB4.wlan[0].mac 	numSentWithoutRetry 	0
scalar car_host_40.hostB4.wlan[0].mac 	numGivenUp 	0
scalar car_host_40.hostB4.wlan[0].mac 	numCollision 	507
scalar car_host_40.hostB4.wlan[0].mac 	numSent 	0
scalar car_host_40.hostB4.wlan[0].mac 	numReceived 	0
scalar car_host_40.hostB4.wlan[0].mac 	numSentBroadcast 	4
scalar car_host_40.hostB4.wlan[0].mac 	numReceivedBroadcast 	37
statistic car_host_40.hostB4.wlan[0].radio 	symbolErrorRate:histogram
field count 2516
field mean 0.00038357130660104
field stddev 0.0066348482411322
field sum 0.9650654074082
field sqrsum 0.11108351752416
field min 4.9013873913252e-036
field max 0.24358334610609
attr source  symbolErrorRate
attr title  "Symbol error rate, histogram"
bin	-INF	0
bin	-0.12179167305305	0
bin	-0.10555278331264	0
bin	-0.089313893572234	0
bin	-0.073075003831828	0
bin	-0.056836114091422	0
bin	-0.040597224351016	0
bin	-0.024358334610609	0
bin	-0.0081194448702031	2504
bin	0.0081194448702031	5
bin	0.024358334610609	0
bin	0.040597224351016	1
bin	0.056836114091422	4
bin	0.073075003831828	0
bin	0.089313893572234	0
bin	0.10555278331264	0
bin	0.12179167305305	0
bin	0.13803056279345	0
bin	0.15426945253386	0
bin	0.17050834227427	1
bin	0.18674723201467	0
bin	0.20298612175508	0
bin	0.21922501149548	0
bin	0.23546390123589	1
bin	0.2517027909763	0
bin	0.2679416807167	0
bin	0.28418057045711	0
bin	0.30041946019752	0
bin	0.31665834993792	0
bin	0.33289723967833	0
bin	0.34913612941873	0
bin	0.36537501915914	0
statistic car_host_40.hostB4.wlan[0].radio 	bitErrorRate:histogram
field count 2516
field mean 0.00038357130660104
field stddev 0.0066348482411322
field sum 0.9650654074082
field sqrsum 0.11108351752416
field min 4.9013873913252e-036
field max 0.24358334610609
attr source  bitErrorRate
attr title  "Bit error rate, histogram"
bin	-INF	0
bin	-0.12179167305305	0
bin	-0.10555278331264	0
bin	-0.089313893572234	0
bin	-0.073075003831828	0
bin	-0.056836114091422	0
bin	-0.040597224351016	0
bin	-0.024358334610609	0
bin	-0.0081194448702031	2504
bin	0.0081194448702031	5
bin	0.024358334610609	0
bin	0.040597224351016	1
bin	0.056836114091422	4
bin	0.073075003831828	0
bin	0.089313893572234	0
bin	0.10555278331264	0
bin	0.12179167305305	0
bin	0.13803056279345	0
bin	0.15426945253386	0
bin	0.17050834227427	1
bin	0.18674723201467	0
bin	0.20298612175508	0
bin	0.21922501149548	0
bin	0.23546390123589	1
bin	0.2517027909763	0
bin	0.2679416807167	0
bin	0.28418057045711	0
bin	0.30041946019752	0
bin	0.31665834993792	0
bin	0.33289723967833	0
bin	0.34913612941873	0
bin	0.36537501915914	0
statistic car_host_40.hostB4.wlan[0].radio 	packetErrorRate:histogram
field count 2516
field mean 0.20258528616088
field stddev 0.36532024676085
field sum 509.70457998078
field sqrsum 438.90773816685
field min 0
field max 1
attr source  packetErrorRate
attr title  "Packet error rate, histogram"
bin	-INF	0
bin	-0.5	0
bin	-0.43333333333333	0
bin	-0.36666666666667	0
bin	-0.3	0
bin	-0.23333333333333	0
bin	-0.16666666666667	0
bin	-0.1	0
bin	-0.033333333333333	1320
bin	0.033333333333333	672
bin	0.1	0
bin	0.16666666666667	1
bin	0.23333333333333	0
bin	0.3	0
bin	0.36666666666667	0
bin	0.43333333333333	0
bin	0.5	0
bin	0.56666666666667	0
bin	0.63333333333333	1
bin	0.7	1
bin	0.76666666666667	0
bin	0.83333333333333	0
bin	0.9	509
bin	0.96666666666667	12
bin	1.0333333333333	0
bin	1.1	0
bin	1.1666666666667	0
bin	1.2333333333333	0
bin	1.3	0
bin	1.3666666666667	0
bin	1.4333333333333	0
bin	1.5	0
statistic car_host_40.hostB4.wlan[0].radio 	minSNIR:histogram
field count 2516
field mean 13.674527705971
field stddev 14.691204727064
field sum 34405.111708222
field sqrsum 1013289.8665574
field min 0.12069449548924
field max 38.927145572044
attr source  minSNIR
attr title  "Min SNIR, histogram"
bin	-INF	0
bin	-19.282531042788	0
bin	-16.695434304351	0
bin	-14.108337565914	0
bin	-11.521240827477	0
bin	-8.9341440890401	0
bin	-6.3470473506031	0
bin	-3.7599506121662	0
bin	-1.1728538737292	12
bin	1.4142428647077	519
bin	4.0013396031447	678
bin	6.5884363415816	647
bin	9.1755330800186	3
bin	11.762629818456	3
bin	14.349726556892	0
bin	16.936823295329	2
bin	19.523920033766	0
bin	22.111016772203	1
bin	24.69811351064	35
bin	27.285210249077	0
bin	29.872306987514	0
bin	32.459403725951	0
bin	35.046500464388	0
bin	37.633597202825	616
bin	40.220693941262	0
bin	42.807790679699	0
bin	45.394887418136	0
bin	47.981984156573	0
bin	50.56908089501	0
bin	53.156177633447	0
bin	55.743274371884	0
bin	58.330371110321	0
scalar car_host_40.hostB4.wlan[0].radio 	transmissionState:count 	16
attr interpolationmode  sample-hold
attr source  transmissionStateChanged
attr title  "Radio transmission state, count"
scalar car_host_40.hostB4.wlan[0].radio 	receptionState:count 	6323
attr interpolationmode  sample-hold
attr source  receptionStateChanged
attr title  "Radio reception state, count"
scalar car_host_40.hostB4.wlan[0].radio 	radioMode:count 	10
attr interpolationmode  sample-hold
attr source  radioModeChanged
attr title  "Radio mode, count"
scalar car_host_40.hostC1.lo0.lo 	droppedPkBitError:count 	0
attr interpolationmode  none
attr source  dropPkBitError
attr title  "packets dropped/bit error, count"
scalar car_host_40.hostC1.lo0.lo 	droppedPkBitError:sum(packetBytes) 	0
attr interpolationmode  none
attr source  dropPkBitError
attr title  "packets dropped/bit error, sum(packetBytes)"
scalar car_host_40.hostC1.lo0.lo 	rcvdPkFromHL:count 	0
attr interpolationmode  none
attr source  packetReceivedFromUpper
attr title  "packets received from higher layer, count"
scalar car_host_40.hostC1.lo0.lo 	rcvdPkFromHL:sum(packetBytes) 	0
attr interpolationmode  none
attr source  packetReceivedFromUpper
attr title  "packets received from higher layer, sum(packetBytes)"
scalar car_host_40.hostC1.lo0.lo 	passedUpPk:count 	0
attr interpolationmode  none
attr source  packetSentToUpper
attr title  "packets passed to higher layer, count"
scalar car_host_40.hostC1.lo0.lo 	passedUpPk:sum(packetBytes) 	0
attr interpolationmode  none
attr source  packetSentToUpper
attr title  "packets passed to higher layer, sum(packetBytes)"
scalar car_host_40.hostC1.wlan[0].mac 	numRetry 	0
scalar car_host_40.hostC1.wlan[0].mac 	numSentWithoutRetry 	0
scalar car_host_40.hostC1.wlan[0].mac 	numGivenUp 	0
scalar car_host_40.hostC1.wlan[0].mac 	numCollision 	546
scalar car_host_40.hostC1.wlan[0].mac 	numSent 	0
scalar car_host_40.hostC1.wlan[0].mac 	numReceived 	0
scalar car_host_40.hostC1.wlan[0].mac 	numSentBroadcast 	2
scalar car_host_40.hostC1.wlan[0].mac 	numReceivedBroadcast 	31
statistic car_host_40.hostC1.wlan[0].radio 	symbolErrorRate:histogram
field count 2293
field mean 0.00025613602368196
field stddev 0.0041747734614495
field sum 0.58731990230274
field sqrsum 0.040097090861943
field min 7.3178802897831e-037
field max 0.16716098667914
attr source  symbolErrorRate
attr title  "Symbol error rate, histogram"
bin	-INF	0
bin	-0.08358049333957	0
bin	-0.072436427560961	0
bin	-0.061292361782352	0
bin	-0.050148296003742	0
bin	-0.039004230225133	0
bin	-0.027860164446523	0
bin	-0.016716098667914	0
bin	-0.0055720328893047	2285
bin	0.0055720328893047	0
bin	0.016716098667914	3
bin	0.027860164446523	0
bin	0.039004230225133	2
bin	0.050148296003742	2
bin	0.061292361782352	0
bin	0.072436427560961	0
bin	0.08358049333957	0
bin	0.09472455911818	0
bin	0.10586862489679	0
bin	0.1170126906754	0
bin	0.12815675645401	0
bin	0.13930082223262	0
bin	0.15044488801123	0
bin	0.16158895378984	1
bin	0.17273301956845	0
bin	0.18387708534705	0
bin	0.19502115112566	0
bin	0.20616521690427	0
bin	0.21730928268288	0
bin	0.22845334846149	0
bin	0.2395974142401	0
bin	0.25074148001871	0
statistic car_host_40.hostC1.wlan[0].radio 	bitErrorRate:histogram
field count 2293
field mean 0.00025613602368196
field stddev 0.0041747734614495
field sum 0.58731990230274
field sqrsum 0.040097090861943
field min 7.3178802897831e-037
field max 0.16716098667914
attr source  bitErrorRate
attr title  "Bit error rate, histogram"
bin	-INF	0
bin	-0.08358049333957	0
bin	-0.072436427560961	0
bin	-0.061292361782352	0
bin	-0.050148296003742	0
bin	-0.039004230225133	0
bin	-0.027860164446523	0
bin	-0.016716098667914	0
bin	-0.0055720328893047	2285
bin	0.0055720328893047	0
bin	0.016716098667914	3
bin	0.027860164446523	0
bin	0.039004230225133	2
bin	0.050148296003742	2
bin	0.061292361782352	0
bin	0.072436427560961	0
bin	0.08358049333957	0
bin	0.09472455911818	0
bin	0.10586862489679	0
bin	0.1170126906754	0
bin	0.12815675645401	0
bin	0.13930082223262	0
bin	0.15044488801123	0
bin	0.16158895378984	1
bin	0.17273301956845	0
bin	0.18387708534705	0
bin	0.19502115112566	0
bin	0.20616521690427	0
bin	0.21730928268288	0
bin	0.22845334846149	0
bin	0.2395974142401	0
bin	0.25074148001871	0
statistic car_host_40.hostC1.wlan[0].radio 	packetErrorRate:histogram
field count 2293
field mean 0.24674620539816
field stddev 0.31692945132119
field sum 565.78904897798
field sqrsum 369.82458403816
field min 0
field max 1
attr source  packetErrorRate
attr title  "Packet error rate, histogram"
bin	-INF	0
bin	-0.5	0
bin	-0.43333333333333	0
bin	-0.36666666666667	0
bin	-0.3	0
bin	-0.23333333333333	0
bin	-0.16666666666667	0
bin	-0.1	0
bin	-0.033333333333333	1162
bin	0.033333333333333	1
bin	0.1	0
bin	0.16666666666667	0
bin	0.23333333333333	624
bin	0.3	1
bin	0.36666666666667	1
bin	0.43333333333333	0
bin	0.5	0
bin	0.56666666666667	0
bin	0.63333333333333	0
bin	0.7	0
bin	0.76666666666667	460
bin	0.83333333333333	1
bin	0.9	0
bin	0.96666666666667	43
bin	1.0333333333333	0
bin	1.1	0
bin	1.1666666666667	0
bin	1.2333333333333	0
bin	1.3	0
bin	1.3666666666667	0
bin	1.4333333333333	0
bin	1.5	0
statistic car_host_40.hostC1.wlan[0].radio 	minSNIR:histogram
field count 2293
field mean 8.4862238713738
field stddev 5.191714790285
field sum 19458.91133706
field sqrsum 226911.02234622
field min 0.23302101012913
field max 39.872114374685
attr source  minSNIR
attr title  "Min SNIR, histogram"
bin	-INF	0
bin	-19.586525672149	0
bin	-16.943919447845	0
bin	-14.301313223541	0
bin	-11.658706999238	0
bin	-9.0161007749339	0
bin	-6.3734945506302	0
bin	-3.7308883263265	0
bin	-1.0882821020227	8
bin	1.554324122281	1130
bin	4.1969303465847	8
bin	6.8395365708884	4
bin	9.4821427951922	628
bin	12.124749019496	0
bin	14.7673552438	508
bin	17.409961468103	2
bin	20.052567692407	3
bin	22.695173916711	0
bin	25.337780141014	0
bin	27.980386365318	0
bin	30.622992589622	0
bin	33.265598813926	0
bin	35.908205038229	0
bin	38.550811262533	2
bin	41.193417486837	0
bin	43.836023711141	0
bin	46.478629935444	0
bin	49.121236159748	0
bin	51.763842384052	0
bin	54.406448608355	0
bin	57.049054832659	0
bin	59.691661056963	0
scalar car_host_40.hostC1.wlan[0].radio 	transmissionState:count 	8
attr interpolationmode  sample-hold
attr source  transmissionStateChanged
attr title  "Radio transmission state, count"
scalar car_host_40.hostC1.wlan[0].radio 	receptionState:count 	4618
attr interpolationmode  sample-hold
attr source  receptionStateChanged
attr title  "Radio reception state, count"
scalar car_host_40.hostC1.wlan[0].radio 	radioMode:count 	6
attr interpolationmode  sample-hold
attr source  radioModeChanged
attr title  "Radio mode, count"
scalar car_host_40.hostC2.lo0.lo 	droppedPkBitError:count 	0
attr interpolationmode  none
attr source  dropPkBitError
attr title  "packets dropped/bit error, count"
scalar car_host_40.hostC2.lo0.lo 	droppedPkBitError:sum(packetBytes) 	0
attr interpolationmode  none
attr source  dropPkBitError
attr title  "packets dropped/bit error, sum(packetBytes)"
scalar car_host_40.hostC2.lo0.lo 	rcvdPkFromHL:count 	0
attr interpolationmode  none
attr source  packetReceivedFromUpper
attr title  "packets received from higher layer, count"
scalar car_host_40.hostC2.lo0.lo 	rcvdPkFromHL:sum(packetBytes) 	0
attr interpolationmode  none
attr source  packetReceivedFromUpper
attr title  "packets received from higher layer, sum(packetBytes)"
scalar car_host_40.hostC2.lo0.lo 	passedUpPk:count 	0
attr interpolationmode  none
attr source  packetSentToUpper
attr title  "packets passed to higher layer, count"
scalar car_host_40.hostC2.lo0.lo 	passedUpPk:sum(packetBytes) 	0
attr interpolationmode  none
attr source  packetSentToUpper
attr title  "packets passed to higher layer, sum(packetBytes)"
scalar car_host_40.hostC2.wlan[0].mac 	numRetry 	0
scalar car_host_40.hostC2.wlan[0].mac 	numSentWithoutRetry 	0
scalar car_host_40.hostC2.wlan[0].mac 	numGivenUp 	0
scalar car_host_40.hostC2.wlan[0].mac 	numCollision 	515
scalar car_host_40.hostC2.wlan[0].mac 	numSent 	0
scalar car_host_40.hostC2.wlan[0].mac 	numReceived 	0
scalar car_host_40.hostC2.wlan[0].mac 	numSentBroadcast 	3
scalar car_host_40.hostC2.wlan[0].mac 	numReceivedBroadcast 	29
statistic car_host_40.hostC2.wlan[0].radio 	symbolErrorRate:histogram
field count 1792
field mean 0.00081470905513706
field stddev 0.0017741850791362
field sum 1.4599586268056
field sqrsum 0.0068270307701821
field min 7.4714648210145e-024
field max 0.03203456706511
attr source  symbolErrorRate
attr title  "Symbol error rate, histogram"
bin	-INF	0
bin	-0.016017283532555	0
bin	-0.013881645728214	0
bin	-0.011746007923874	0
bin	-0.0096103701195329	0
bin	-0.0074747323151923	0
bin	-0.0053390945108516	0
bin	-0.003203456706511	0
bin	-0.0010678189021703	1278
bin	0.0010678189021703	508
bin	0.003203456706511	2
bin	0.0053390945108516	0
bin	0.0074747323151923	0
bin	0.0096103701195329	0
bin	0.011746007923874	0
bin	0.013881645728214	0
bin	0.016017283532555	0
bin	0.018152921336896	0
bin	0.020288559141236	0
bin	0.022424196945577	0
bin	0.024559834749917	2
bin	0.026695472554258	0
bin	0.028831110358599	1
bin	0.030966748162939	1
bin	0.03310238596728	0
bin	0.035238023771621	0
bin	0.037373661575961	0
bin	0.039509299380302	0
bin	0.041644937184643	0
bin	0.043780574988983	0
bin	0.045916212793324	0
bin	0.048051850597665	0
statistic car_host_40.hostC2.wlan[0].radio 	bitErrorRate:histogram
field count 1792
field mean 0.00081470905513706
field stddev 0.0017741850791362
field sum 1.4599586268056
field sqrsum 0.0068270307701821
field min 7.4714648210145e-024
field max 0.03203456706511
attr source  bitErrorRate
attr title  "Bit error rate, histogram"
bin	-INF	0
bin	-0.016017283532555	0
bin	-0.013881645728214	0
bin	-0.011746007923874	0
bin	-0.0096103701195329	0
bin	-0.0074747323151923	0
bin	-0.0053390945108516	0
bin	-0.003203456706511	0
bin	-0.0010678189021703	1278
bin	0.0010678189021703	508
bin	0.003203456706511	2
bin	0.0053390945108516	0
bin	0.0074747323151923	0
bin	0.0096103701195329	0
bin	0.011746007923874	0
bin	0.013881645728214	0
bin	0.016017283532555	0
bin	0.018152921336896	0
bin	0.020288559141236	0
bin	0.022424196945577	0
bin	0.024559834749917	2
bin	0.026695472554258	0
bin	0.028831110358599	1
bin	0.030966748162939	1
bin	0.03310238596728	0
bin	0.035238023771621	0
bin	0.037373661575961	0
bin	0.039509299380302	0
bin	0.041644937184643	0
bin	0.043780574988983	0
bin	0.045916212793324	0
bin	0.048051850597665	0
statistic car_host_40.hostC2.wlan[0].radio 	packetErrorRate:histogram
field count 1792
field mean 0.28735503779857
field stddev 0.45180416666473
field sum 514.94022773503
field sqrsum 513.56213458776
field min 0
field max 0.99999999966332
attr source  packetErrorRate
attr title  "Packet error rate, histogram"
bin	-INF	0
bin	-0.49999999983166	0
bin	-0.43333333318744	0
bin	-0.36666666654322	0
bin	-0.299999999899	0
bin	-0.23333333325478	0
bin	-0.16666666661055	0
bin	-0.099999999966332	0
bin	-0.033333333322111	1269
bin	0.033333333322111	6
bin	0.099999999966332	0
bin	0.16666666661055	0
bin	0.23333333325478	2
bin	0.299999999899	0
bin	0.36666666654322	0
bin	0.43333333318744	0
bin	0.49999999983166	0
bin	0.56666666647588	1
bin	0.6333333331201	1
bin	0.69999999976433	0
bin	0.76666666640855	0
bin	0.83333333305277	1
bin	0.89999999969699	1
bin	0.96666666634121	511
bin	1.0333333329854	0
bin	1.0999999996297	0
bin	1.1666666662739	0
bin	1.2333333329181	0
bin	1.2999999995623	0
bin	1.3666666662065	0
bin	1.4333333328508	0
bin	1.499999999495	0
statistic car_host_40.hostC2.wlan[0].radio 	minSNIR:histogram
field count 1792
field mean 14.538071669083
field stddev 8.9063941665589
field sum 26052.224430996
field sqrsum 520818.1338936
field min 0.8571968041672
field max 25.009737503719
attr source  minSNIR
attr title  "Min SNIR, histogram"
bin	-INF	0
bin	-11.219073545609	0
bin	-9.6089041656387	0
bin	-7.9987347856686	0
bin	-6.3885654056984	0
bin	-4.7783960257283	0
bin	-3.1682266457582	0
bin	-1.558057265788	0
bin	0.052112114182124	4
bin	1.6622814941523	512
bin	3.2724508741224	9
bin	4.8826202540925	5
bin	6.4927896340627	4
bin	8.1029590140328	3
bin	9.713128394003	2
bin	11.323297773973	1
bin	12.933467153943	1
bin	14.543636533913	625
bin	16.153805913884	0
bin	17.763975293854	0
bin	19.374144673824	0
bin	20.984314053794	0
bin	22.594483433764	625
bin	24.204652813734	1
bin	25.814822193704	0
bin	27.424991573675	0
bin	29.035160953645	0
bin	30.645330333615	0
bin	32.255499713585	0
bin	33.865669093555	0
bin	35.475838473525	0
bin	37.086007853495	0
scalar car_host_40.hostC2.wlan[0].radio 	transmissionState:count 	12
attr interpolationmode  sample-hold
attr source  transmissionStateChanged
attr title  "Radio transmission state, count"
scalar car_host_40.hostC2.wlan[0].radio 	receptionState:count 	5000
attr interpolationmode  sample-hold
attr source  receptionStateChanged
attr title  "Radio reception state, count"
scalar car_host_40.hostC2.wlan[0].radio 	radioMode:count 	8
attr interpolationmode  sample-hold
attr source  radioModeChanged
attr title  "Radio mode, count"
scalar car_host_40.hostC3.lo0.lo 	droppedPkBitError:count 	0
attr interpolationmode  none
attr source  dropPkBitError
attr title  "packets dropped/bit error, count"
scalar car_host_40.hostC3.lo0.lo 	droppedPkBitError:sum(packetBytes) 	0
attr interpolationmode  none
attr source  dropPkBitError
attr title  "packets dropped/bit error, sum(packetBytes)"
scalar car_host_40.hostC3.lo0.lo 	rcvdPkFromHL:count 	0
attr interpolationmode  none
attr source  packetReceivedFromUpper
attr title  "packets received from higher layer, count"
scalar car_host_40.hostC3.lo0.lo 	rcvdPkFromHL:sum(packetBytes) 	0
attr interpolationmode  none
attr source  packetReceivedFromUpper
attr title  "packets received from higher layer, sum(packetBytes)"
scalar car_host_40.hostC3.lo0.lo 	passedUpPk:count 	0
attr interpolationmode  none
attr source  packetSentToUpper
attr title  "packets passed to higher layer, count"
scalar car_host_40.hostC3.lo0.lo 	passedUpPk:sum(packetBytes) 	0
attr interpolationmode  none
attr source  packetSentToUpper
attr title  "packets passed to higher layer, sum(packetBytes)"
scalar car_host_40.hostC3.wlan[0].mac 	numRetry 	0
scalar car_host_40.hostC3.wlan[0].mac 	numSentWithoutRetry 	0
scalar car_host_40.hostC3.wlan[0].mac 	numGivenUp 	0
scalar car_host_40.hostC3.wlan[0].mac 	numCollision 	38
scalar car_host_40.hostC3.wlan[0].mac 	numSent 	0
scalar car_host_40.hostC3.wlan[0].mac 	numReceived 	0
scalar car_host_40.hostC3.wlan[0].mac 	numSentBroadcast 	3
scalar car_host_40.hostC3.wlan[0].mac 	numReceivedBroadcast 	27
statistic car_host_40.hostC3.wlan[0].radio 	symbolErrorRate:histogram
field count 1278
field mean 7.8957305724091e-005
field stddev 0.0015084545485348
field sum 0.10090743671539
field sqrsum 0.0029136980339494
field min 1.4737696037048e-016
field max 0.040460154185588
attr source  symbolErrorRate
attr title  "Symbol error rate, histogram"
bin	-INF	0
bin	-0.020230077092794	0
bin	-0.017532733480421	0
bin	-0.014835389868049	0
bin	-0.012138046255676	0
bin	-0.0094407026433036	0
bin	-0.0067433590309311	0
bin	-0.0040460154185586	0
bin	-0.0013486718061861	1274
bin	0.0013486718061864	1
bin	0.0040460154185589	0
bin	0.0067433590309314	0
bin	0.0094407026433039	0
bin	0.012138046255676	0
bin	0.014835389868049	0
bin	0.017532733480421	0
bin	0.020230077092794	0
bin	0.022927420705166	1
bin	0.025624764317539	1
bin	0.028322107929911	0
bin	0.031019451542284	0
bin	0.033716795154656	0
bin	0.036414138767029	0
bin	0.039111482379401	1
bin	0.041808825991774	0
bin	0.044506169604147	0
bin	0.047203513216519	0
bin	0.049900856828892	0
bin	0.052598200441264	0
bin	0.055295544053637	0
bin	0.057992887666009	0
bin	0.060690231278382	0
statistic car_host_40.hostC3.wlan[0].radio 	bitErrorRate:histogram
field count 1278
field mean 7.8957305724091e-005
field stddev 0.0015084545485348
field sum 0.10090743671539
field sqrsum 0.0029136980339494
field min 1.4737696037048e-016
field max 0.040460154185588
attr source  bitErrorRate
attr title  "Bit error rate, histogram"
bin	-INF	0
bin	-0.020230077092794	0
bin	-0.017532733480421	0
bin	-0.014835389868049	0
bin	-0.012138046255676	0
bin	-0.0094407026433036	0
bin	-0.0067433590309311	0
bin	-0.0040460154185586	0
bin	-0.0013486718061861	1274
bin	0.0013486718061864	1
bin	0.0040460154185589	0
bin	0.0067433590309314	0
bin	0.0094407026433039	0
bin	0.012138046255676	0
bin	0.014835389868049	0
bin	0.017532733480421	0
bin	0.020230077092794	0
bin	0.022927420705166	1
bin	0.025624764317539	1
bin	0.028322107929911	0
bin	0.031019451542284	0
bin	0.033716795154656	0
bin	0.036414138767029	0
bin	0.039111482379401	1
bin	0.041808825991774	0
bin	0.044506169604147	0
bin	0.047203513216519	0
bin	0.049900856828892	0
bin	0.052598200441264	0
bin	0.055295544053637	0
bin	0.057992887666009	0
bin	0.060690231278382	0
statistic car_host_40.hostC3.wlan[0].radio 	packetErrorRate:histogram
field count 1278
field mean 0.043841419309979
field stddev 0.058003988549163
field sum 56.029333878153
field sqrsum 6.7528243722908
field min 5.3290705182008e-014
field max 0.9999999975439
attr source  packetErrorRate
attr title  "Packet error rate, histogram"
bin	-INF	0
bin	-0.49999999877187	0
bin	-0.43333333226895	0
bin	-0.36666666576602	0
bin	-0.2999999992631	0
bin	-0.23333333276018	0
bin	-0.16666666625725	0
bin	-0.099999999754331	0
bin	-0.033333333251408	646
bin	0.033333333251515	626
bin	0.099999999754438	1
bin	0.16666666625736	0
bin	0.23333333276028	0
bin	0.29999999926321	0
bin	0.36666666576613	1
bin	0.43333333226905	0
bin	0.49999999877197	0
bin	0.5666666652749	1
bin	0.63333333177782	0
bin	0.69999999828074	0
bin	0.76666666478367	0
bin	0.83333333128659	0
bin	0.89999999778951	0
bin	0.96666666429243	3
bin	1.0333333307954	0
bin	1.0999999972983	0
bin	1.1666666638012	0
bin	1.2333333303041	0
bin	1.299999996807	0
bin	1.36666666331	0
bin	1.4333333298129	0
bin	1.4999999963158	0
statistic car_host_40.hostC3.wlan[0].radio 	minSNIR:histogram
field count 1278
field mean 5.0654691557503
field stddev 0.81046336634168
field sum 6473.6695810488
field sqrsum 33630.97214599
field min 0.76157999152678
field max 16.709511951852
attr source  minSNIR
attr title  "Min SNIR, histogram"
bin	-INF	0
bin	-7.2123859886359	0
bin	-6.1491905246142	0
bin	-5.0859950605925	0
bin	-4.0227995965708	0
bin	-2.9596041325492	0
bin	-1.8964086685275	0
bin	-0.83321320450576	0
bin	0.22998225951594	3
bin	1.2931777235376	1
bin	2.3563731875593	6
bin	3.419568651581	2
bin	4.4827641156027	1253
bin	5.5459595796244	5
bin	6.6091550436461	0
bin	7.6723505076678	0
bin	8.7355459716895	2
bin	9.7987414357112	1
bin	10.861936899733	0
bin	11.925132363755	1
bin	12.988327827776	0
bin	14.051523291798	3
bin	15.11471875582	0
bin	16.177914219841	1
bin	17.241109683863	0
bin	18.304305147885	0
bin	19.367500611906	0
bin	20.430696075928	0
bin	21.49389153995	0
bin	22.557087003972	0
bin	23.620282467993	0
bin	24.683477932015	0
scalar car_host_40.hostC3.wlan[0].radio 	transmissionState:count 	12
attr interpolationmode  sample-hold
attr source  transmissionStateChanged
attr title  "Radio transmission state, count"
scalar car_host_40.hostC3.wlan[0].radio 	receptionState:count 	5973
attr interpolationmode  sample-hold
attr source  receptionStateChanged
attr title  "Radio reception state, count"
scalar car_host_40.hostC3.wlan[0].radio 	radioMode:count 	8
attr interpolationmode  sample-hold
attr source  radioModeChanged
attr title  "Radio mode, count"
scalar car_host_40.hostC4.lo0.lo 	droppedPkBitError:count 	0
attr interpolationmode  none
attr source  dropPkBitError
attr title  "packets dropped/bit error, count"
scalar car_host_40.hostC4.lo0.lo 	droppedPkBitError:sum(packetBytes) 	0
attr interpolationmode  none
attr source  dropPkBitError
attr title  "packets dropped/bit error, sum(packetBytes)"
scalar car_host_40.hostC4.lo0.lo 	rcvdPkFromHL:count 	0
attr interpolationmode  none
attr source  packetReceivedFromUpper
attr title  "packets received from higher layer, count"
scalar car_host_40.hostC4.lo0.lo 	rcvdPkFromHL:sum(packetBytes) 	0
attr interpolationmode  none
attr source  packetReceivedFromUpper
attr title  "packets received from higher layer, sum(packetBytes)"
scalar car_host_40.hostC4.lo0.lo 	passedUpPk:count 	0
attr interpolationmode  none
attr source  packetSentToUpper
attr title  "packets passed to higher layer, count"
scalar car_host_40.hostC4.lo0.lo 	passedUpPk:sum(packetBytes) 	0
attr interpolationmode  none
attr source  packetSentToUpper
attr title  "packets passed to higher layer, sum(packetBytes)"
scalar car_host_40.hostC4.wlan[0].mac 	numRetry 	0
scalar car_host_40.hostC4.wlan[0].mac 	numSentWithoutRetry 	0
scalar car_host_40.hostC4.wlan[0].mac 	numGivenUp 	0
scalar car_host_40.hostC4.wlan[0].mac 	numCollision 	519
scalar car_host_40.hostC4.wlan[0].mac 	numSent 	623
scalar car_host_40.hostC4.wlan[0].mac 	numReceived 	623
scalar car_host_40.hostC4.wlan[0].mac 	numSentBroadcast 	3
scalar car_host_40.hostC4.wlan[0].mac 	numReceivedBroadcast 	33
statistic car_host_40.hostC4.wlan[0].radio 	symbolErrorRate:histogram
field count 1177
field mean 0.00062002995635462
field stddev 0.0038458109516737
field sum 0.72977525862939
field sqrsum 0.017845830487949
field min 1.0410809724929e-032
field max 0.083092314216494
attr source  symbolErrorRate
attr title  "Symbol error rate, histogram"
bin	-INF	0
bin	-0.041546157108247	0
bin	-0.036006669493814	0
bin	-0.030467181879381	0
bin	-0.024927694264948	0
bin	-0.019388206650515	0
bin	-0.013848719036082	0
bin	-0.0083092314216494	0
bin	-0.0027697438072165	1166
bin	0.0027697438072165	4
bin	0.0083092314216494	0
bin	0.013848719036082	2
bin	0.019388206650515	0
bin	0.024927694264948	0
bin	0.030467181879381	2
bin	0.036006669493814	1
bin	0.041546157108247	0
bin	0.04708564472268	0
bin	0.052625132337113	0
bin	0.058164619951546	0
bin	0.063704107565979	0
bin	0.069243595180412	0
bin	0.074783082794845	0
bin	0.080322570409278	2
bin	0.085862058023711	0
bin	0.091401545638144	0
bin	0.096941033252577	0
bin	0.10248052086701	0
bin	0.10802000848144	0
bin	0.11355949609588	0
bin	0.11909898371031	0
bin	0.12463847132474	0
statistic car_host_40.hostC4.wlan[0].radio 	bitErrorRate:histogram
field count 1177
field mean 0.00062002995635462
field stddev 0.0038458109516737
field sum 0.72977525862939
field sqrsum 0.017845830487949
field min 1.0410809724929e-032
field max 0.083092314216494
attr source  bitErrorRate
attr title  "Bit error rate, histogram"
bin	-INF	0
bin	-0.041546157108247	0
bin	-0.036006669493814	0
bin	-0.030467181879381	0
bin	-0.024927694264948	0
bin	-0.019388206650515	0
bin	-0.013848719036082	0
bin	-0.0083092314216494	0
bin	-0.0027697438072165	1166
bin	0.0027697438072165	4
bin	0.0083092314216494	0
bin	0.013848719036082	2
bin	0.019388206650515	0
bin	0.024927694264948	0
bin	0.030467181879381	2
bin	0.036006669493814	1
bin	0.041546157108247	0
[...]
bin	29.899060860199	0
bin	33.822106401764	507
bin	37.745151943329	0
bin	41.668197484894	0
bin	45.591243026459	3
bin	49.514288568024	0
bin	53.437334109589	0
bin	57.360379651154	2
bin	61.283425192719	0
bin	65.206470734284	0
bin	69.129516275849	0
bin	73.052561817414	0
bin	76.975607358979	0
bin	80.898652900544	0
bin	84.821698442109	0
bin	88.744743983674	0
scalar car_host_40.hoste6.wlan[0].radio 	transmissionState:count 	8
attr interpolationmode  sample-hold
attr source  transmissionStateChanged
attr title  "Radio transmission state, count"
scalar car_host_40.hoste6.wlan[0].radio 	receptionState:count 	3353
attr interpolationmode  sample-hold
attr source  receptionStateChanged
attr title  "Radio reception state, count"
scalar car_host_40.hoste6.wlan[0].radio 	radioMode:count 	6
attr interpolationmode  sample-hold
attr source  radioModeChanged
attr title  "Radio mode, count"
scalar car_host_40.hoste7.lo0.lo 	droppedPkBitError:count 	0
attr interpolationmode  none
attr source  dropPkBitError
attr title  "packets dropped/bit error, count"
scalar car_host_40.hoste7.lo0.lo 	droppedPkBitError:sum(packetBytes) 	0
attr interpolationmode  none
attr source  dropPkBitError
attr title  "packets dropped/bit error, sum(packetBytes)"
scalar car_host_40.hoste7.lo0.lo 	rcvdPkFromHL:count 	0
attr interpolationmode  none
attr source  packetReceivedFromUpper
attr title  "packets received from higher layer, count"
scalar car_host_40.hoste7.lo0.lo 	rcvdPkFromHL:sum(packetBytes) 	0
attr interpolationmode  none
attr source  packetReceivedFromUpper
attr title  "packets received from higher layer, sum(packetBytes)"
scalar car_host_40.hoste7.lo0.lo 	passedUpPk:count 	0
attr interpolationmode  none
attr source  packetSentToUpper
attr title  "packets passed to higher layer, count"
scalar car_host_40.hoste7.lo0.lo 	passedUpPk:sum(packetBytes) 	0
attr interpolationmode  none
attr source  packetSentToUpper
attr title  "packets passed to higher layer, sum(packetBytes)"
scalar car_host_40.hoste7.wlan[0].mac 	numRetry 	0
scalar car_host_40.hoste7.wlan[0].mac 	numSentWithoutRetry 	0
scalar car_host_40.hoste7.wlan[0].mac 	numGivenUp 	0
scalar car_host_40.hoste7.wlan[0].mac 	numCollision 	6
scalar car_host_40.hoste7.wlan[0].mac 	numSent 	0
scalar car_host_40.hoste7.wlan[0].mac 	numReceived 	0
scalar car_host_40.hoste7.wlan[0].mac 	numSentBroadcast 	2
scalar car_host_40.hoste7.wlan[0].mac 	numReceivedBroadcast 	15
statistic car_host_40.hoste7.wlan[0].radio 	symbolErrorRate:histogram
field count 1026
field mean 3.2430226320921e-005
field stddev 0.00048961611999373
field sum 0.033273412205265
field sqrsum 0.00024679610786995
field min 3.596500021421e-045
field max 0.011004780851433
attr source  symbolErrorRate
attr title  "Symbol error rate, histogram"
bin	-INF	0
bin	-0.0055023904257167	0
bin	-0.0047687383689545	0
bin	-0.0040350863121922	0
bin	-0.00330143425543	0
bin	-0.0025677821986678	0
bin	-0.0018341301419056	0
bin	-0.0011004780851433	0
bin	-0.00036682602838111	1020
bin	0.00036682602838111	0
bin	0.0011004780851433	2
bin	0.0018341301419056	0
bin	0.0025677821986678	0
bin	0.00330143425543	0
bin	0.0040350863121922	0
bin	0.0047687383689545	2
bin	0.0055023904257167	0
bin	0.0062360424824789	0
bin	0.0069696945392411	0
bin	0.0077033465960034	1
bin	0.0084369986527656	0
bin	0.0091706507095278	0
bin	0.00990430276629	0
bin	0.010637954823052	1
bin	0.011371606879814	0
bin	0.012105258936577	0
bin	0.012838910993339	0
bin	0.013572563050101	0
bin	0.014306215106863	0
bin	0.015039867163626	0
bin	0.015773519220388	0
bin	0.01650717127715	0
statistic car_host_40.hoste7.wlan[0].radio 	bitErrorRate:histogram
field count 1026
field mean 3.2430226320921e-005
field stddev 0.00048961611999373
field sum 0.033273412205265
field sqrsum 0.00024679610786995
field min 3.596500021421e-045
field max 0.011004780851433
attr source  bitErrorRate
attr title  "Bit error rate, histogram"
bin	-INF	0
bin	-0.0055023904257167	0
bin	-0.0047687383689545	0
bin	-0.0040350863121922	0
bin	-0.00330143425543	0
bin	-0.0025677821986678	0
bin	-0.0018341301419056	0
bin	-0.0011004780851433	0
bin	-0.00036682602838111	1020
bin	0.00036682602838111	0
bin	0.0011004780851433	2
bin	0.0018341301419056	0
bin	0.0025677821986678	0
bin	0.00330143425543	0
bin	0.0040350863121922	0
bin	0.0047687383689545	2
bin	0.0055023904257167	0
bin	0.0062360424824789	0
bin	0.0069696945392411	0
bin	0.0077033465960034	1
bin	0.0084369986527656	0
bin	0.0091706507095278	0
bin	0.00990430276629	0
bin	0.010637954823052	1
bin	0.011371606879814	0
bin	0.012105258936577	0
bin	0.012838910993339	0
bin	0.013572563050101	0
bin	0.014306215106863	0
bin	0.015039867163626	0
bin	0.015773519220388	0
bin	0.01650717127715	0
statistic car_host_40.hoste7.wlan[0].radio 	packetErrorRate:histogram
field count 1026
field mean 0.0049932584708946
field stddev 0.064281669948713
field sum 5.1230831911378
field sqrsum 4.2610172972215
field min 0
field max 0.992969307459
attr source  packetErrorRate
attr title  "Packet error rate, histogram"
bin	-INF	0
bin	-0.4964846537295	0
bin	-0.4302866998989	0
bin	-0.3640887460683	0
bin	-0.2978907922377	0
bin	-0.2316928384071	0
bin	-0.1654948845765	0
bin	-0.0992969307459	0
bin	-0.0330989769153	1018
bin	0.0330989769153	2
bin	0.0992969307459	0
bin	0.1654948845765	0
bin	0.2316928384071	0
bin	0.2978907922377	0
bin	0.3640887460683	0
bin	0.4302866998989	0
bin	0.4964846537295	1
bin	0.5626826075601	1
bin	0.6288805613907	0
bin	0.6950785152213	0
bin	0.7612764690519	0
bin	0.8274744228825	0
bin	0.8936723767131	2
bin	0.9598703305437	2
bin	1.0260682843743	0
bin	1.0922662382049	0
bin	1.1584641920355	0
bin	1.2246621458661	0
bin	1.2908600996967	0
bin	1.3570580535273	0
bin	1.4232560073579	0
bin	1.4894539611885	0
statistic car_host_40.hoste7.wlan[0].radio 	minSNIR:histogram
field count 1026
field mean 12.484035561949
field stddev 3.9611712716682
field sum 12808.620486559
field sqrsum 175986.42344329
field min 1.3112572458692
field max 49.384730950242
attr source  minSNIR
attr title  "Min SNIR, histogram"
bin	-INF	0
bin	-22.725479606317	0
bin	-19.520581359359	0
bin	-16.315683112401	0
bin	-13.110784865443	0
bin	-9.9058866184844	0
bin	-6.7009883715262	0
bin	-3.496090124568	0
bin	-0.29119187760985	6
bin	2.9137063693483	5
bin	6.1186046163065	510
bin	9.3235028632647	6
bin	12.528401110223	35
bin	15.733299357181	459
bin	18.938197604139	2
bin	22.143095851097	1
bin	25.347994098056	0
bin	28.552892345014	0
bin	31.757790591972	0
bin	34.96268883893	0
bin	38.167587085888	0
bin	41.372485332846	0
bin	44.577383579805	0
bin	47.782281826763	2
bin	50.987180073721	0
bin	54.192078320679	0
bin	57.396976567637	0
bin	60.601874814595	0
bin	63.806773061554	0
bin	67.011671308512	0
bin	70.21656955547	0
bin	73.421467802428	0
scalar car_host_40.hoste7.wlan[0].radio 	transmissionState:count 	8
attr interpolationmode  sample-hold
attr source  transmissionStateChanged
attr title  "Radio transmission state, count"
scalar car_host_40.hoste7.wlan[0].radio 	receptionState:count 	2084
attr interpolationmode  sample-hold
attr source  receptionStateChanged
attr title  "Radio reception state, count"
scalar car_host_40.hoste7.wlan[0].radio 	radioMode:count 	6
attr interpolationmode  sample-hold
attr source  radioModeChanged
attr title  "Radio mode, count"
scalar car_host_40.hoste8.lo0.lo 	droppedPkBitError:count 	0
attr interpolationmode  none
attr source  dropPkBitError
attr title  "packets dropped/bit error, count"
scalar car_host_40.hoste8.lo0.lo 	droppedPkBitError:sum(packetBytes) 	0
attr interpolationmode  none
attr source  dropPkBitError
attr title  "packets dropped/bit error, sum(packetBytes)"
scalar car_host_40.hoste8.lo0.lo 	rcvdPkFromHL:count 	0
attr interpolationmode  none
attr source  packetReceivedFromUpper
attr title  "packets received from higher layer, count"
scalar car_host_40.hoste8.lo0.lo 	rcvdPkFromHL:sum(packetBytes) 	0
attr interpolationmode  none
attr source  packetReceivedFromUpper
attr title  "packets received from higher layer, sum(packetBytes)"
scalar car_host_40.hoste8.lo0.lo 	passedUpPk:count 	0
attr interpolationmode  none
attr source  packetSentToUpper
attr title  "packets passed to higher layer, count"
scalar car_host_40.hoste8.lo0.lo 	passedUpPk:sum(packetBytes) 	0
attr interpolationmode  none
attr source  packetSentToUpper
attr title  "packets passed to higher layer, sum(packetBytes)"
scalar car_host_40.hoste8.wlan[0].mac 	numRetry 	0
scalar car_host_40.hoste8.wlan[0].mac 	numSentWithoutRetry 	0
scalar car_host_40.hoste8.wlan[0].mac 	numGivenUp 	0
scalar car_host_40.hoste8.wlan[0].mac 	numCollision 	5
scalar car_host_40.hoste8.wlan[0].mac 	numSent 	0
scalar car_host_40.hoste8.wlan[0].mac 	numReceived 	0
scalar car_host_40.hoste8.wlan[0].mac 	numSentBroadcast 	2
scalar car_host_40.hoste8.wlan[0].mac 	numReceivedBroadcast 	19
statistic car_host_40.hoste8.wlan[0].radio 	symbolErrorRate:histogram
field count 521
field mean 1.4827690497248e-005
field stddev 0.00015212800954936
field sum 0.007725226749066
field sqrsum 1.2148871541771e-005
field min 1.3282577331749e-036
field max 0.0022401879241394
attr source  symbolErrorRate
attr title  "Symbol error rate, histogram"
bin	-INF	0
bin	-0.0011200939620697	0
bin	-0.00097074810046039	0
bin	-0.0008214022388511	0
bin	-0.00067205637724181	0
bin	-0.00052271051563252	0
bin	-0.00037336465402323	0
bin	-0.00022401879241394	0
bin	-7.4672930804646e-005	516
bin	7.4672930804646e-005	0
bin	0.00022401879241394	0
bin	0.00037336465402323	0
bin	0.00052271051563252	0
bin	0.00067205637724181	0
bin	0.0008214022388511	0
bin	0.00097074810046039	0
bin	0.0011200939620697	2
bin	0.001269439823679	1
bin	0.0014187856852883	1
bin	0.0015681315468976	0
bin	0.0017174774085068	0
bin	0.0018668232701161	0
bin	0.0020161691317254	0
bin	0.0021655149933347	1
bin	0.002314860854944	0
bin	0.0024642067165533	0
bin	0.0026135525781626	0
bin	0.0027628984397719	0
bin	0.0029122443013812	0
bin	0.0030615901629905	0
bin	0.0032109360245998	0
bin	0.0033602818862091	0
statistic car_host_40.hoste8.wlan[0].radio 	bitErrorRate:histogram
field count 521
field mean 1.4827690497248e-005
field stddev 0.00015212800954936
field sum 0.007725226749066
field sqrsum 1.2148871541771e-005
field min 1.3282577331749e-036
field max 0.0022401879241394
attr source  bitErrorRate
attr title  "Bit error rate, histogram"
bin	-INF	0
bin	-0.0011200939620697	0
bin	-0.00097074810046039	0
bin	-0.0008214022388511	0
bin	-0.00067205637724181	0
bin	-0.00052271051563252	0
bin	-0.00037336465402323	0
bin	-0.00022401879241394	0
bin	-7.4672930804646e-005	516
bin	7.4672930804646e-005	0
bin	0.00022401879241394	0
bin	0.00037336465402323	0
bin	0.00052271051563252	0
bin	0.00067205637724181	0
bin	0.0008214022388511	0
bin	0.00097074810046039	0
bin	0.0011200939620697	2
bin	0.001269439823679	1
bin	0.0014187856852883	1
bin	0.0015681315468976	0
bin	0.0017174774085068	0
bin	0.0018668232701161	0
bin	0.0020161691317254	0
bin	0.0021655149933347	1
bin	0.002314860854944	0
bin	0.0024642067165533	0
bin	0.0026135525781626	0
bin	0.0027628984397719	0
bin	0.0029122443013812	0
bin	0.0030615901629905	0
bin	0.0032109360245998	0
bin	0.0033602818862091	0
statistic car_host_40.hoste8.wlan[0].radio 	packetErrorRate:histogram
field count 521
field mean 0.0050345004969521
field stddev 0.050289551521742
field sum 2.622974758912
field sqrsum 1.3283056437014
field min 0
field max 0.65921259144557
attr source  packetErrorRate
attr title  "Packet error rate, histogram"
bin	-INF	0
bin	-0.32960629572279	0
bin	-0.28565878962642	0
bin	-0.24171128353004	0
bin	-0.19776377743367	0
bin	-0.1538162713373	0
bin	-0.10986876524093	0
bin	-0.065921259144557	0
bin	-0.021973753048186	514
bin	0.021973753048186	2
bin	0.065921259144557	0
bin	0.10986876524093	0
bin	0.1538162713373	0
bin	0.19776377743367	0
bin	0.24171128353004	0
bin	0.28565878962642	0
bin	0.32960629572279	0
bin	0.37355380181916	0
bin	0.41750130791553	2
bin	0.4614488140119	1
bin	0.50539632010827	1
bin	0.54934382620464	0
bin	0.59329133230102	0
bin	0.63723883839739	1
bin	0.68118634449376	0
bin	0.72513385059013	0
bin	0.7690813566865	0
bin	0.81302886278287	0
bin	0.85697636887925	0
bin	0.90092387497562	0
bin	0.94487138107199	0
bin	0.98881888716836	0
statistic car_host_40.hoste8.wlan[0].radio 	minSNIR:histogram
field count 521
field mean 13.361067637278
field stddev 2.3839952869104
field sum 6961.116239022
field sqrsum 95963.330335094
field min 2.0195213365236
field max 39.575889644965
attr source  minSNIR
attr title  "Min SNIR, histogram"
bin	-INF	0
bin	-16.758662817697	0
bin	-14.254904930468	0
bin	-11.751147043238	0
bin	-9.2473891560088	0
bin	-6.7436312687794	0
bin	-4.23987338155	0
bin	-1.7361154943206	0
bin	0.76764239290886	5
bin	3.2714002801383	7
bin	5.7751581673677	3
bin	8.2789160545971	4
bin	10.782673941827	37
bin	13.286431829056	460
bin	15.790189716285	2
bin	18.293947603515	0
bin	20.797705490744	0
bin	23.301463377974	0
bin	25.805221265203	0
bin	28.308979152432	0
bin	30.812737039662	1
bin	33.316494926891	1
bin	35.820252814121	0
bin	38.32401070135	1
bin	40.82776858858	0
bin	43.331526475809	0
bin	45.835284363038	0
bin	48.339042250268	0
bin	50.842800137497	0
bin	53.346558024727	0
bin	55.850315911956	0
bin	58.354073799185	0
scalar car_host_40.hoste8.wlan[0].radio 	transmissionState:count 	8
attr interpolationmode  sample-hold
attr source  transmissionStateChanged
attr title  "Radio transmission state, count"
scalar car_host_40.hoste8.wlan[0].radio 	receptionState:count 	2079
attr interpolationmode  sample-hold
attr source  receptionStateChanged
attr title  "Radio reception state, count"
scalar car_host_40.hoste8.wlan[0].radio 	radioMode:count 	6
attr interpolationmode  sample-hold
attr source  radioModeChanged
attr title  "Radio mode, count"
scalar car_host_40.hoste9.lo0.lo 	droppedPkBitError:count 	0
attr interpolationmode  none
attr source  dropPkBitError
attr title  "packets dropped/bit error, count"
scalar car_host_40.hoste9.lo0.lo 	droppedPkBitError:sum(packetBytes) 	0
attr interpolationmode  none
attr source  dropPkBitError
attr title  "packets dropped/bit error, sum(packetBytes)"
scalar car_host_40.hoste9.lo0.lo 	rcvdPkFromHL:count 	0
attr interpolationmode  none
attr source  packetReceivedFromUpper
attr title  "packets received from higher layer, count"
scalar car_host_40.hoste9.lo0.lo 	rcvdPkFromHL:sum(packetBytes) 	0
attr interpolationmode  none
attr source  packetReceivedFromUpper
attr title  "packets received from higher layer, sum(packetBytes)"
scalar car_host_40.hoste9.lo0.lo 	passedUpPk:count 	0
attr interpolationmode  none
attr source  packetSentToUpper
attr title  "packets passed to higher layer, count"
scalar car_host_40.hoste9.lo0.lo 	passedUpPk:sum(packetBytes) 	0
attr interpolationmode  none
attr source  packetSentToUpper
attr title  "packets passed to higher layer, sum(packetBytes)"
scalar car_host_40.hoste9.wlan[0].mac 	numRetry 	0
scalar car_host_40.hoste9.wlan[0].mac 	numSentWithoutRetry 	0
scalar car_host_40.hoste9.wlan[0].mac 	numGivenUp 	0
scalar car_host_40.hoste9.wlan[0].mac 	numCollision 	15
scalar car_host_40.hoste9.wlan[0].mac 	numSent 	495
scalar car_host_40.hoste9.wlan[0].mac 	numReceived 	495
scalar car_host_40.hoste9.wlan[0].mac 	numSentBroadcast 	2
scalar car_host_40.hoste9.wlan[0].mac 	numReceivedBroadcast 	24
statistic car_host_40.hoste9.wlan[0].radio 	symbolErrorRate:histogram
field count 536
field mean 1.4674022419627e-005
field stddev 0.00014224612784692
field sum 0.0078652760169203
field sqrsum 1.0940584311391e-005
field min 2.6267313653456e-068
field max 0.0031481838095493
attr source  symbolErrorRate
attr title  "Symbol error rate, histogram"
bin	-INF	0
bin	-0.0015740919047746	0
bin	-0.001364212984138	0
bin	-0.0011543340635014	0
bin	-0.00094445514286479	0
bin	-0.00073457622222817	0
bin	-0.00052469730159155	0
bin	-0.00031481838095493	0
bin	-0.00010493946031831	531
bin	0.00010493946031831	0
bin	0.00031481838095493	2
bin	0.00052469730159155	2
bin	0.00073457622222817	0
bin	0.00094445514286479	0
bin	0.0011543340635014	0
bin	0.001364212984138	0
bin	0.0015740919047746	0
bin	0.0017839708254113	0
bin	0.0019938497460479	0
bin	0.0022037286666845	0
bin	0.0024136075873211	0
bin	0.0026234865079577	0
bin	0.0028333654285944	0
bin	0.003043244349231	1
bin	0.0032531232698676	0
bin	0.0034630021905042	0
bin	0.0036728811111408	0
bin	0.0038827600317775	0
bin	0.0040926389524141	0
bin	0.0043025178730507	0
bin	0.0045123967936873	0
bin	0.0047222757143239	0
statistic car_host_40.hoste9.wlan[0].radio 	bitErrorRate:histogram
field count 536
field mean 1.4674022419627e-005
field stddev 0.00014224612784692
field sum 0.0078652760169203
field sqrsum 1.0940584311391e-005
field min 2.6267313653456e-068
field max 0.0031481838095493
attr source  bitErrorRate
attr title  "Bit error rate, histogram"
bin	-INF	0
bin	-0.0015740919047746	0
bin	-0.001364212984138	0
bin	-0.0011543340635014	0
bin	-0.00094445514286479	0
bin	-0.00073457622222817	0
bin	-0.00052469730159155	0
bin	-0.00031481838095493	0
bin	-0.00010493946031831	531
bin	0.00010493946031831	0
bin	0.00031481838095493	2
bin	0.00052469730159155	2
bin	0.00073457622222817	0
bin	0.00094445514286479	0
bin	0.0011543340635014	0
bin	0.001364212984138	0
bin	0.0015740919047746	0
bin	0.0017839708254113	0
bin	0.0019938497460479	0
bin	0.0022037286666845	0
bin	0.0024136075873211	0
bin	0.0026234865079577	0
bin	0.0028333654285944	0
bin	0.003043244349231	1
bin	0.0032531232698676	0
bin	0.0034630021905042	0
bin	0.0036728811111408	0
bin	0.0038827600317775	0
bin	0.0040926389524141	0
bin	0.0043025178730507	0
bin	0.0045123967936873	0
bin	0.0047222757143239	0
statistic car_host_40.hoste9.wlan[0].radio 	packetErrorRate:histogram
field count 536
field mean 0.042923307862738
field stddev 0.036223734572004
field sum 23.006893014428
field sqrsum 1.6895369881169
field min 0
field max 0.77986447232333
attr source  packetErrorRate
attr title  "Packet error rate, histogram"
bin	-INF	0
bin	-0.38993223616167	0
bin	-0.33794127134011	0
bin	-0.28595030651856	0
bin	-0.233959341697	0
bin	-0.18196837687544	0
bin	-0.12997741205389	0
bin	-0.077986447232333	0
bin	-0.025995482410778	24
bin	0.025995482410778	507
bin	0.077986447232333	0
bin	0.12997741205389	1
bin	0.18196837687544	3
bin	0.233959341697	0
bin	0.28595030651856	0
bin	0.33794127134011	0
bin	0.38993223616167	0
bin	0.44192320098322	0
bin	0.49391416580478	0
bin	0.54590513062633	0
bin	0.59789609544789	0
bin	0.64988706026945	0
bin	0.701878025091	0
bin	0.75386898991256	1
bin	0.80585995473411	0
bin	0.85785091955567	0
bin	0.90984188437722	0
bin	0.96183284919878	0
bin	1.0138238140203	0
bin	1.0658147788419	0
bin	1.1178057436634	0
bin	1.169796708485	0
statistic car_host_40.hoste9.wlan[0].radio 	minSNIR:histogram
field count 536
field mean 5.3209461302043
field stddev 4.8282447887795
field sum 2852.0271257895
field sqrsum 27647.374739309
field min 1.8658663919545
field max 75.914943555564
attr source  minSNIR
attr title  "Min SNIR, histogram"
bin	-INF	0
bin	-35.15867218985	0
bin	-30.222067045609	0
bin	-25.285461901369	0
bin	-20.348856757128	0
bin	-15.412251612888	0
bin	-10.475646468647	0
bin	-5.5390413244064	0
bin	-0.60243618016577	7
bin	4.3341689640748	520
bin	9.2707741083155	2
bin	14.207379252556	3
bin	19.143984396797	1
bin	24.080589541037	0
bin	29.017194685278	0
bin	33.953799829519	0
bin	38.890404973759	0
bin	43.827010118	1
bin	48.76361526224	0
bin	53.700220406481	0
bin	58.636825550722	0
bin	63.573430694962	0
bin	68.510035839203	0
bin	73.446640983443	2
bin	78.383246127684	0
bin	83.319851271925	0
bin	88.256456416165	0
bin	93.193061560406	0
bin	98.129666704647	0
bin	103.06627184889	0
bin	108.00287699313	0
bin	112.93948213737	0
scalar car_host_40.hoste9.wlan[0].radio 	transmissionState:count 	1988
attr interpolationmode  sample-hold
attr source  transmissionStateChanged
attr title  "Radio transmission state, count"
scalar car_host_40.hoste9.wlan[0].radio 	receptionState:count 	2088
attr interpolationmode  sample-hold
attr source  receptionStateChanged
attr title  "Radio reception state, count"
scalar car_host_40.hoste9.wlan[0].radio 	radioMode:count 	996
attr interpolationmode  sample-hold
attr source  radioModeChanged
attr title  "Radio mode, count"
