version 2
run Host40_40pps-0-20161122-09:55:59-8040
attr configname Host40_40pps
attr datetime 20161122-09:55:59
attr experiment Host40_40pps
attr inifile omnetpp_40.ini
attr iterationvars ""
attr iterationvars2 $repetition=0
attr measurement ""
attr network arb_png.car_host_40
attr processid 8040
attr repetition 0
attr replication #0
attr resultdir results
attr runnumber 0
attr seedset 0
param **.aodv.activeRouteTimeout 2s
param *.configurator.addStaticRoutes false
param *.configurator.config "xml(\"<config><interface hosts='**' address='10.0.0.x' netmask='255.255.255.0'/><autoroute metric='errorRate'/></config>\")"
param *.configurator.optimizeRoutes true
param *.host*.**.bitrate 1Mbps
param *.host*.networkLayer.arpType "\"GlobalARP\""
param *.host*.routingTable.netmaskRoutes "\"\""
param *.host*.wlan[0].mac.maxQueueSize 15
param *.host*.wlan[0].mac.useAck false
param *.host*.wlan[0].macType "\"CsmaCaMac\""
param *.host*.wlan[0].radio.bandwidth 2MHz
param *.host*.wlan[0].radio.carrierFrequency 2GHz
param *.host*.wlan[0].radio.displayCommunicationRange true
param *.host*.wlan[0].radio.displayInterferenceRange true
param *.host*.wlan[0].radio.receiver.energyDetection -85dBm
param *.host*.wlan[0].radio.receiver.ignoreInterference false
param *.host*.wlan[0].radio.receiver.sensitivity -85dBm
param *.host*.wlan[0].radio.receiver.snirThreshold 4dB
param *.host*.wlan[0].radio.transmitter.communicationRange 200m
param *.host*.wlan[0].radio.transmitter.headerBitLength 0b
param *.host*.wlan[0].radio.transmitter.power 1.4mW
param *.host*.wlan[0].radio.transmitter.preambleDuration 10us
param *.host*.wlan[0].radioType "\"APSKScalarRadio\""
param *.host*.wlan[0].typename "\"WirelessNic\""
param *.hostA.numUdpApps 1
param *.hostA.udpApp[0].destAddresses "\"hostD\""
param *.hostA.udpApp[0].destPort 5000
param *.hostA.udpApp[0].messageLength 1000B
param *.hostA.udpApp[0].packetName "\"Data\""
param *.hostA.udpApp[0].sendInterval 25ms
param *.hostA.udpApp[0].typename "\"UDPBasicApp\""
param *.hostD.numUdpApps 1
param *.hostD.udpApp[0].localPort 5000
param *.hostD.udpApp[0].typename "\"UDPSink\""
param *.hostType "\"AODVRouter\""
param *.mediumType "\"APSKScalarRadioMedium\""
param *.radioMedium.backgroundNoise.power -90dBm
param *.radioMedium.mediumLimitCache.carrierFrequency 2GHz
param *.visualizer.dataLinkVisualizer.packetNameFilter "\"AODV*\""
param *.visualizer.mediumVisualizer.signalPropagationUpdateInterval 100ns
param *.visualizer.mobilityVisualizer.displayMovementTrail true
param *.visualizer.networkRouteVisualizer.packetNameFilter "\"UDPData*\""
param *.visualizer.sceneVisualizer.descriptionFigure "\"title\""

scalar car_host_40.radioMedium.propagation 	"Arrival computation count" 	303605
scalar car_host_40.radioMedium 	"transmission count" 	7405
scalar car_host_40.radioMedium 	"radio frame send count" 	303605
scalar car_host_40.radioMedium 	"reception computation count" 	303605
scalar car_host_40.radioMedium 	"interference computation count" 	891599
scalar car_host_40.radioMedium 	"reception decision computation count" 	80272
scalar car_host_40.radioMedium 	"listening decision computation count" 	508889
scalar car_host_40.radioMedium 	"reception cache hit" 	80.59886905283
attr unit  %
scalar car_host_40.radioMedium 	"interference cache hit" 	66.666666666667
attr unit  %
scalar car_host_40.radioMedium 	"noise cache hit" 	0
attr unit  %
scalar car_host_40.radioMedium 	"snir cache hit" 	50
attr unit  %
scalar car_host_40.radioMedium 	"reception decision cache hit" 	50
attr unit  %
scalar car_host_40.radioMedium 	"reception result cache hit" 	0
attr unit  %
scalar car_host_40.hostA.lo0.lo 	droppedPkBitError:count 	0
attr interpolationmode  none
attr source  dropPkBitError
attr title  "packets dropped/bit error, count"
scalar car_host_40.hostA.lo0.lo 	droppedPkBitError:sum(packetBytes) 	0
attr interpolationmode  none
attr source  dropPkBitError
attr title  "packets dropped/bit error, sum(packetBytes)"
scalar car_host_40.hostA.lo0.lo 	rcvdPkFromHL:count 	0
attr interpolationmode  none
attr source  packetReceivedFromUpper
attr title  "packets received from higher layer, count"
scalar car_host_40.hostA.lo0.lo 	rcvdPkFromHL:sum(packetBytes) 	0
attr interpolationmode  none
attr source  packetReceivedFromUpper
attr title  "packets received from higher layer, sum(packetBytes)"
scalar car_host_40.hostA.lo0.lo 	passedUpPk:count 	0
attr interpolationmode  none
attr source  packetSentToUpper
attr title  "packets passed to higher layer, count"
scalar car_host_40.hostA.lo0.lo 	passedUpPk:sum(packetBytes) 	0
attr interpolationmode  none
attr source  packetSentToUpper
attr title  "packets passed to higher layer, sum(packetBytes)"
scalar car_host_40.hostA.wlan[0].mac 	numRetry 	0
scalar car_host_40.hostA.wlan[0].mac 	numSentWithoutRetry 	0
scalar car_host_40.hostA.wlan[0].mac 	numGivenUp 	0
scalar car_host_40.hostA.wlan[0].mac 	numCollision 	15
scalar car_host_40.hostA.wlan[0].mac 	numSent 	2236
scalar car_host_40.hostA.wlan[0].mac 	numReceived 	2
scalar car_host_40.hostA.wlan[0].mac 	numSentBroadcast 	5
scalar car_host_40.hostA.wlan[0].mac 	numReceivedBroadcast 	27
statistic car_host_40.hostA.wlan[0].radio 	symbolErrorRate:histogram
field count 2216
field mean 2.6548365486661e-005
field stddev 0.00060488880807109
field sum 0.05883117791844
field sqrsum 0.00081200926295061
field min 1.3620169898655e-015
field max 0.020012064065237
attr source  symbolErrorRate
attr title  "Symbol error rate, histogram"
bin	-INF	0
bin	-0.010006032032616	0
bin	-0.0086718944282672	0
bin	-0.0073377568239182	0
bin	-0.0060036192195692	0
bin	-0.0046694816152202	0
bin	-0.0033353440108712	0
bin	-0.0020012064065222	0
bin	-0.00066706880217314	2211
bin	0.00066706880217587	0
bin	0.0020012064065249	1
bin	0.0033353440108739	1
bin	0.0046694816152229	0
bin	0.0060036192195719	0
bin	0.0073377568239209	0
bin	0.00867189442827	0
bin	0.010006032032619	0
bin	0.011340169636968	0
bin	0.012674307241317	2
bin	0.014008444845666	0
bin	0.015342582450015	0
bin	0.016676720054364	0
bin	0.018010857658713	0
bin	0.019344995263062	1
bin	0.020679132867411	0
bin	0.02201327047176	0
bin	0.023347408076109	0
bin	0.024681545680458	0
bin	0.026015683284807	0
bin	0.027349820889156	0
bin	0.028683958493505	0
bin	0.030018096097854	0
statistic car_host_40.hostA.wlan[0].radio 	bitErrorRate:histogram
field count 2216
field mean 2.6548365486661e-005
field stddev 0.00060488880807109
field sum 0.05883117791844
field sqrsum 0.00081200926295061
field min 1.3620169898655e-015
field max 0.020012064065237
attr source  bitErrorRate
attr title  "Bit error rate, histogram"
bin	-INF	0
bin	-0.010006032032616	0
bin	-0.0086718944282672	0
bin	-0.0073377568239182	0
bin	-0.0060036192195692	0
bin	-0.0046694816152202	0
bin	-0.0033353440108712	0
bin	-0.0020012064065222	0
bin	-0.00066706880217314	2211
bin	0.00066706880217587	0
bin	0.0020012064065249	1
bin	0.0033353440108739	1
bin	0.0046694816152229	0
bin	0.0060036192195719	0
bin	0.0073377568239209	0
bin	0.00867189442827	0
bin	0.010006032032619	0
bin	0.011340169636968	0
bin	0.012674307241317	2
bin	0.014008444845666	0
bin	0.015342582450015	0
bin	0.016676720054364	0
bin	0.018010857658713	0
bin	0.019344995263062	1
bin	0.020679132867411	0
bin	0.02201327047176	0
bin	0.023347408076109	0
bin	0.024681545680458	0
bin	0.026015683284807	0
bin	0.027349820889156	0
bin	0.028683958493505	0
bin	0.030018096097854	0
statistic car_host_40.hostA.wlan[0].radio 	packetErrorRate:histogram
field count 2216
field mean 0.0081563419574838
field stddev 0.080131217107073
field sum 18.074453777784
field sqrsum 14.369962906166
field min 6.3948846218409e-013
field max 0.99993891281664
attr source  packetErrorRate
attr title  "Packet error rate, histogram"
bin	-INF	0
bin	-0.49996945640736	0
bin	-0.43330686221963	0
bin	-0.36664426803189	0
bin	-0.29998167384416	0
bin	-0.23331907965643	0
bin	-0.16665648546869	0
bin	-0.09999389128096	0
bin	-0.033331297093227	2193
bin	0.033331297094506	0
bin	0.099993891282239	2
bin	0.16665648546997	0
bin	0.23331907965771	0
bin	0.29998167384544	0
bin	0.36664426803317	0
bin	0.4333068622209	0
bin	0.49996945640864	0
bin	0.56663205059637	0
bin	0.6332946447841	0
bin	0.69995723897184	1
bin	0.76661983315957	16
bin	0.8332824273473	1
bin	0.89994502153504	0
bin	0.96660761572277	3
bin	1.0332702099105	0
bin	1.0999328040982	0
bin	1.166595398286	0
bin	1.2332579924737	0
bin	1.2999205866614	0
bin	1.3665831808492	0
bin	1.4332457750369	0
bin	1.4999083692246	0
statistic car_host_40.hostA.wlan[0].radio 	minSNIR:histogram
field count 2216
field mean 10.471385426023
field stddev 1.6857107371947
field sum 23204.590104068
field sqrsum 249278.39645981
field min 1.0542153675986
field max 15.614110336308
attr source  minSNIR
attr title  "Min SNIR, histogram"
bin	-INF	0
bin	-6.2257321167561	0
bin	-5.2550724521754	0
bin	-4.2844127875948	0
bin	-3.3137531230142	0
bin	-2.3430934584336	0
bin	-1.3724337938529	0
bin	-0.40177412927231	0
bin	0.56888553530832	3
bin	1.539545199889	2
bin	2.5102048644696	18
bin	3.4808645290502	5
bin	4.4515241936308	8
bin	5.4221838582115	218
bin	6.3928435227921	0
bin	7.3635031873727	2
bin	8.3341628519534	0
bin	9.304822516534	0
bin	10.275482181115	1957
bin	11.246141845695	0
bin	12.216801510276	0
bin	13.187461174856	0
bin	14.158120839437	0
bin	15.128780504018	3
bin	16.099440168598	0
bin	17.070099833179	0
bin	18.04075949776	0
bin	19.01141916234	0
bin	19.982078826921	0
bin	20.952738491502	0
bin	21.923398156082	0
bin	22.894057820663	0
scalar car_host_40.hostA.wlan[0].radio 	transmissionState:count 	8964
attr interpolationmode  sample-hold
attr source  transmissionStateChanged
attr title  "Radio transmission state, count"
scalar car_host_40.hostA.wlan[0].radio 	receptionState:count 	12830
attr interpolationmode  sample-hold
attr source  receptionStateChanged
attr title  "Radio reception state, count"
scalar car_host_40.hostA.wlan[0].radio 	radioMode:count 	4484
attr interpolationmode  sample-hold
attr source  radioModeChanged
attr title  "Radio mode, count"
scalar car_host_40.hostA.udpApp[0] 	"packets sent" 	2400
scalar car_host_40.hostA.udpApp[0] 	"packets received" 	0
scalar car_host_40.hostA.udpApp[0] 	sentPk:count 	2400
attr interpolationmode  none
attr source  sentPk
attr title  "packets sent, count"
scalar car_host_40.hostA.udpApp[0] 	sentPk:sum(packetBytes) 	2400000
attr interpolationmode  none
attr source  sentPk
attr title  "packets sent, sum(packetBytes)"
scalar car_host_40.hostA.udpApp[0] 	rcvdPk:count 	0
attr interpolationmode  none
attr source  rcvdPk
attr title  "packets received, count"
scalar car_host_40.hostA.udpApp[0] 	rcvdPk:sum(packetBytes) 	0
attr interpolationmode  none
attr source  rcvdPk
attr title  "packets received, sum(packetBytes)"
scalar car_host_40.hostA.udpApp[0] 	throughput:last 	nan
attr source  throughput(rcvdPk)
attr title  "throughput, last"
attr unit  bps
statistic car_host_40.hostA.udpApp[0] 	rcvdPkLifetime:stats
field count 0
field mean nan
field stddev nan
field sum 0
field sqrsum 0
field min nan
field max nan
attr interpolationmode  none
attr source  messageAge(rcvdPk)
attr title  "received packet lifetime, stats"
attr unit  s
scalar car_host_40.hostA.udp 	droppedPkBadChecksum:count 	0
attr interpolationmode  none
attr title  "packets dropped (checksum error), count"
scalar car_host_40.hostA.udp 	droppedPkWrongPort:count 	0
attr interpolationmode  none
attr title  "packets dropped (wrong port), count"
scalar car_host_40.hostA.udp 	passedUpPk:count 	0
attr interpolationmode  none
attr title  "packets passed up, count"
scalar car_host_40.hostA.udp 	sentPk:count 	2400
attr interpolationmode  none
attr source  sentPk
attr title  "packets sent, count"
scalar car_host_40.hostA.udp 	sentPk:sum(packetBytes) 	2419200
attr interpolationmode  none
attr source  sentPk
attr title  "packets sent, sum(packetBytes)"
scalar car_host_40.hostA.udp 	rcvdPk:count 	0
attr interpolationmode  none
attr source  rcvdPk
attr title  "packets received, count"
scalar car_host_40.hostA.udp 	rcvdPk:sum(packetBytes) 	0
attr interpolationmode  none
attr source  rcvdPk
attr title  "packets received, sum(packetBytes)"
scalar car_host_40.hostD.lo0.lo 	droppedPkBitError:count 	0
attr interpolationmode  none
attr source  dropPkBitError
attr title  "packets dropped/bit error, count"
scalar car_host_40.hostD.lo0.lo 	droppedPkBitError:sum(packetBytes) 	0
attr interpolationmode  none
attr source  dropPkBitError
attr title  "packets dropped/bit error, sum(packetBytes)"
scalar car_host_40.hostD.lo0.lo 	rcvdPkFromHL:count 	0
attr interpolationmode  none
attr source  packetReceivedFromUpper
attr title  "packets received from higher layer, count"
scalar car_host_40.hostD.lo0.lo 	rcvdPkFromHL:sum(packetBytes) 	0
attr interpolationmode  none
attr source  packetReceivedFromUpper
attr title  "packets received from higher layer, sum(packetBytes)"
scalar car_host_40.hostD.lo0.lo 	passedUpPk:count 	0
attr interpolationmode  none
attr source  packetSentToUpper
attr title  "packets passed to higher layer, count"
scalar car_host_40.hostD.lo0.lo 	passedUpPk:sum(packetBytes) 	0
attr interpolationmode  none
attr source  packetSentToUpper
attr title  "packets passed to higher layer, sum(packetBytes)"
scalar car_host_40.hostD.wlan[0].mac 	numRetry 	0
scalar car_host_40.hostD.wlan[0].mac 	numSentWithoutRetry 	0
scalar car_host_40.hostD.wlan[0].mac 	numGivenUp 	0
scalar car_host_40.hostD.wlan[0].mac 	numCollision 	4
scalar car_host_40.hostD.wlan[0].mac 	numSent 	3
scalar car_host_40.hostD.wlan[0].mac 	numReceived 	0
scalar car_host_40.hostD.wlan[0].mac 	numSentBroadcast 	0
scalar car_host_40.hostD.wlan[0].mac 	numReceivedBroadcast 	22
statistic car_host_40.hostD.wlan[0].radio 	symbolErrorRate:histogram
field count 29
field mean 0.00058675027441981
field stddev 0.0021768867767289
field sum 0.017015757958175
field sqrsum 0.00014267140973494
field min 2.9972646811824e-023
field max 0.01127430535797
attr source  symbolErrorRate
attr title  "Symbol error rate, histogram"
bin	-INF	0
bin	-0.0056371526789852	0
bin	-0.0048855323217872	0
bin	-0.0041339119645892	0
bin	-0.0033822916073911	0
bin	-0.0026306712501931	0
bin	-0.0018790508929951	0
bin	-0.001127430535797	0
bin	-0.00037581017859902	25
bin	0.00037581017859902	2
bin	0.001127430535797	0
bin	0.0018790508929951	0
bin	0.0026306712501931	0
bin	0.0033822916073911	1
bin	0.0041339119645892	0
bin	0.0048855323217872	0
bin	0.0056371526789852	0
bin	0.0063887730361833	0
bin	0.0071403933933813	0
bin	0.0078920137505793	0
bin	0.0086436341077774	0
bin	0.0093952544649754	0
bin	0.010146874822173	0
bin	0.010898495179371	1
bin	0.011650115536569	0
bin	0.012401735893768	0
bin	0.013153356250966	0
bin	0.013904976608164	0
bin	0.014656596965362	0
bin	0.01540821732256	0
bin	0.016159837679758	0
bin	0.016911458036956	0
statistic car_host_40.hostD.wlan[0].radio 	bitErrorRate:histogram
field count 29
field mean 0.00058675027441981
field stddev 0.0021768867767289
field sum 0.017015757958175
field sqrsum 0.00014267140973494
field min 2.9972646811824e-023
field max 0.01127430535797
attr source  bitErrorRate
attr title  "Bit error rate, histogram"
bin	-INF	0
bin	-0.0056371526789852	0
bin	-0.0048855323217872	0
bin	-0.0041339119645892	0
bin	-0.0033822916073911	0
bin	-0.0026306712501931	0
bin	-0.0018790508929951	0
bin	-0.001127430535797	0
bin	-0.00037581017859902	25
bin	0.00037581017859902	2
bin	0.001127430535797	0
bin	0.0018790508929951	0
bin	0.0026306712501931	0
bin	0.0033822916073911	1
bin	0.0041339119645892	0
bin	0.0048855323217872	0
bin	0.0056371526789852	0
bin	0.0063887730361833	0
bin	0.0071403933933813	0
bin	0.0078920137505793	0
bin	0.0086436341077774	0
bin	0.0093952544649754	0
bin	0.010146874822173	0
bin	0.010898495179371	1
bin	0.011650115536569	0
bin	0.012401735893768	0
bin	0.013153356250966	0
bin	0.013904976608164	0
bin	0.014656596965362	0
bin	0.01540821732256	0
bin	0.016159837679758	0
bin	0.016911458036956	0
statistic car_host_40.hostD.wlan[0].radio 	packetErrorRate:histogram
field count 29
field mean 0.090971695523538
field stddev 0.24461826375166
field sum 2.6381791701826
field sqrsum 1.9154662911109
field min 0
field max 0.99567093723227
attr source  packetErrorRate
attr title  "Packet error rate, histogram"
bin	-INF	0
bin	-0.49783546861614	0
bin	-0.43145740613398	0
bin	-0.36507934365183	0
bin	-0.29870128116968	0
bin	-0.23232321868753	0
bin	-0.16594515620538	0
bin	-0.099567093723227	0
bin	-0.033189031241076	23
bin	0.033189031241076	2
bin	0.099567093723227	0
bin	0.16594515620538	0
bin	0.23232321868753	1
bin	0.29870128116968	1
bin	0.36507934365183	0
bin	0.43145740613399	0
bin	0.49783546861614	0
bin	0.56421353109829	0
bin	0.63059159358044	0
bin	0.69696965606259	0
bin	0.76334771854474	0
bin	0.82972578102689	1
bin	0.89610384350905	0
bin	0.9624819059912	1
bin	1.0288599684733	0
bin	1.0952380309555	0
bin	1.1616160934377	0
bin	1.2279941559198	0
bin	1.294372218402	0
bin	1.3607502808841	0
bin	1.4271283433663	0
bin	1.4935064058484	0
statistic car_host_40.hostD.wlan[0].radio 	minSNIR:histogram
field count 29
field mean 8.1693596211685
field stddev 5.7937957595786
field sum 236.91142901389
field sqrsum 2875.3206024833
field min 1.3007370922648
field max 24.321977011446
attr source  minSNIR
attr title  "Min SNIR, histogram"
bin	-INF	0
bin	-10.209882867326	0
bin	-8.6751335393803	0
bin	-7.1403842114349	0
bin	-5.6056348834895	0
bin	-4.0708855555441	0
bin	-2.5361362275987	0
bin	-1.0013868996533	0
bin	0.53336242829213	2
bin	2.0681117562375	4
bin	3.6028610841829	5
bin	5.1376104121283	4
bin	6.6723597400737	5
bin	8.2071090680191	0
bin	9.7418583959645	1
bin	11.27660772391	2
bin	12.811357051855	1
bin	14.346106379801	2
bin	15.880855707746	1
bin	17.415605035692	0
bin	18.950354363637	0
bin	20.485103691582	1
bin	22.019853019528	0
bin	23.554602347473	1
bin	25.089351675419	0
bin	26.624101003364	0
bin	28.158850331309	0
bin	29.693599659255	0
bin	31.2283489872	0
bin	32.763098315146	0
bin	34.297847643091	0
bin	35.832596971036	0
scalar car_host_40.hostD.wlan[0].radio 	transmissionState:count 	12
attr interpolationmode  sample-hold
attr source  transmissionStateChanged
attr title  "Radio transmission state, count"
scalar car_host_40.hostD.wlan[0].radio 	receptionState:count 	100
attr interpolationmode  sample-hold
attr source  receptionStateChanged
attr title  "Radio reception state, count"
scalar car_host_40.hostD.wlan[0].radio 	radioMode:count 	8
attr interpolationmode  sample-hold
attr source  radioModeChanged
attr title  "Radio mode, count"
scalar car_host_40.hostD.udpApp[0] 	rcvdPk:count 	0
attr interpolationmode  none
attr source  rcvdPk
attr title  "packets received, count"
scalar car_host_40.hostD.udpApp[0] 	rcvdPk:sum(packetBytes) 	0
attr interpolationmode  none
attr source  rcvdPk
attr title  "packets received, sum(packetBytes)"
scalar car_host_40.hostD.udpApp[0] 	throughput:last 	nan
attr source  throughput(rcvdPk)
attr title  "throughput, last"
attr unit  bps
statistic car_host_40.hostD.udpApp[0] 	endToEndDelay:histogram
field count 0
field mean nan
field stddev nan
field sum 0
field sqrsum 0
field min nan
field max nan
attr interpolationmode  none
attr source  messageAge(rcvdPk)
attr title  "end-to-end delay, histogram"
attr unit  s
bin	-INF	0
bin	-0.5	0
bin	-0.46666666666667	0
bin	-0.43333333333333	0
bin	-0.4	0
bin	-0.36666666666667	0
bin	-0.33333333333333	0
bin	-0.3	0
bin	-0.26666666666667	0
bin	-0.23333333333333	0
bin	-0.2	0
bin	-0.16666666666667	0
bin	-0.13333333333333	0
bin	-0.1	0
bin	-0.066666666666667	0
bin	-0.033333333333333	0
bin	0	0
bin	0.033333333333333	0
bin	0.066666666666667	0
bin	0.1	0
bin	0.13333333333333	0
bin	0.16666666666667	0
bin	0.2	0
bin	0.23333333333333	0
bin	0.26666666666667	0
bin	0.3	0
bin	0.33333333333333	0
bin	0.36666666666667	0
bin	0.4	0
bin	0.43333333333333	0
bin	0.46666666666667	0
bin	0.5	0
scalar car_host_40.hostD.udp 	droppedPkBadChecksum:count 	0
attr interpolationmode  none
attr title  "packets dropped (checksum error), count"
scalar car_host_40.hostD.udp 	droppedPkWrongPort:count 	0
attr interpolationmode  none
attr title  "packets dropped (wrong port), count"
scalar car_host_40.hostD.udp 	passedUpPk:count 	0
attr interpolationmode  none
attr title  "packets passed up, count"
scalar car_host_40.hostD.udp 	sentPk:count 	0
attr interpolationmode  none
attr source  sentPk
attr title  "packets sent, count"
scalar car_host_40.hostD.udp 	sentPk:sum(packetBytes) 	0
attr interpolationmode  none
attr source  sentPk
attr title  "packets sent, sum(packetBytes)"
scalar car_host_40.hostD.udp 	rcvdPk:count 	0
attr interpolationmode  none
attr source  rcvdPk
attr title  "packets received, count"
scalar car_host_40.hostD.udp 	rcvdPk:sum(packetBytes) 	0
attr interpolationmode  none
attr source  rcvdPk
attr title  "packets received, sum(packetBytes)"
scalar car_host_40.hostB.lo0.lo 	droppedPkBitError:count 	0
attr interpolationmode  none
attr source  dropPkBitError
attr title  "packets dropped/bit error, count"
scalar car_host_40.hostB.lo0.lo 	droppedPkBitError:sum(packetBytes) 	0
attr interpolationmode  none
attr source  dropPkBitError
attr title  "packets dropped/bit error, sum(packetBytes)"
scalar car_host_40.hostB.lo0.lo 	rcvdPkFromHL:count 	0
attr interpolationmode  none
attr source  packetReceivedFromUpper
attr title  "packets received from higher layer, count"
scalar car_host_40.hostB.lo0.lo 	rcvdPkFromHL:sum(packetBytes) 	0
attr interpolationmode  none
attr source  packetReceivedFromUpper
attr title  "packets received from higher layer, sum(packetBytes)"
scalar car_host_40.hostB.lo0.lo 	passedUpPk:count 	0
attr interpolationmode  none
attr source  packetSentToUpper
attr title  "packets passed to higher layer, count"
scalar car_host_40.hostB.lo0.lo 	passedUpPk:sum(packetBytes) 	0
attr interpolationmode  none
attr source  packetSentToUpper
attr title  "packets passed to higher layer, sum(packetBytes)"
scalar car_host_40.hostB.wlan[0].mac 	numRetry 	0
scalar car_host_40.hostB.wlan[0].mac 	numSentWithoutRetry 	0
scalar car_host_40.hostB.wlan[0].mac 	numGivenUp 	0
scalar car_host_40.hostB.wlan[0].mac 	numCollision 	83
scalar car_host_40.hostB.wlan[0].mac 	numSent 	1
scalar car_host_40.hostB.wlan[0].mac 	numReceived 	1
scalar car_host_40.hostB.wlan[0].mac 	numSentBroadcast 	4
scalar car_host_40.hostB.wlan[0].mac 	numReceivedBroadcast 	46
statistic car_host_40.hostB.wlan[0].radio 	symbolErrorRate:histogram
field count 2878
field mean 0.00024504780582078
field stddev 0.0048628833436852
field sum 0.70524758515221
field sqrsum 0.068207063583218
field min 2.700504120744e-025
field max 0.15177488721651
attr source  symbolErrorRate
attr title  "Symbol error rate, histogram"
bin	-INF	0
bin	-0.075887443608256	0
bin	-0.065769117793822	0
bin	-0.055650791979388	0
bin	-0.045532466164954	0
bin	-0.035414140350519	0
bin	-0.025295814536085	0
bin	-0.015177488721651	0
bin	-0.0050591629072171	2866
bin	0.0050591629072171	5
bin	0.015177488721651	1
bin	0.025295814536085	1
bin	0.035414140350519	0
bin	0.045532466164954	0
bin	0.055650791979388	1
bin	0.065769117793822	0
bin	0.075887443608256	1
bin	0.08600576942269	0
bin	0.096124095237124	0
bin	0.10624242105156	0
bin	0.11636074686599	0
bin	0.12647907268043	2
bin	0.13659739849486	0
bin	0.14671572430929	1
bin	0.15683405012373	0
bin	0.16695237593816	0
bin	0.1770707017526	0
bin	0.18718902756703	0
bin	0.19730735338147	0
bin	0.2074256791959	0
bin	0.21754400501033	0
bin	0.22766233082477	0
statistic car_host_40.hostB.wlan[0].radio 	bitErrorRate:histogram
field count 2878
field mean 0.00024504780582078
field stddev 0.0048628833436852
field sum 0.70524758515221
field sqrsum 0.068207063583218
field min 2.700504120744e-025
field max 0.15177488721651
attr source  bitErrorRate
attr title  "Bit error rate, histogram"
bin	-INF	0
bin	-0.075887443608256	0
bin	-0.065769117793822	0
bin	-0.055650791979388	0
bin	-0.045532466164954	0
bin	-0.035414140350519	0
bin	-0.025295814536085	0
bin	-0.015177488721651	0
bin	-0.0050591629072171	2866
bin	0.0050591629072171	5
bin	0.015177488721651	1
bin	0.025295814536085	1
bin	0.035414140350519	0
bin	0.045532466164954	0
bin	0.055650791979388	1
bin	0.065769117793822	0
bin	0.075887443608256	1
bin	0.08600576942269	0
bin	0.096124095237124	0
bin	0.10624242105156	0
bin	0.11636074686599	0
bin	0.12647907268043	2
bin	0.13659739849486	0
bin	0.14671572430929	1
bin	0.15683405012373	0
bin	0.16695237593816	0
bin	0.1770707017526	0
bin	0.18718902756703	0
bin	0.19730735338147	0
bin	0.2074256791959	0
bin	0.21754400501033	0
bin	0.22766233082477	0
statistic car_host_40.hostB.wlan[0].radio 	packetErrorRate:histogram
field count 2878
field mean 0.027887920500889
field stddev 0.1244950243329
field sum 80.261435201559
field sqrsum 46.828979411845
field min 0
field max 1
attr source  packetErrorRate
attr title  "Packet error rate, histogram"
bin	-INF	0
bin	-0.5	0
bin	-0.43333333333333	0
bin	-0.36666666666667	0
bin	-0.3	0
bin	-0.23333333333333	0
bin	-0.16666666666667	0
bin	-0.1	0
bin	-0.033333333333333	2822
bin	0.033333333333333	3
bin	0.1	3
bin	0.16666666666667	0
bin	0.23333333333333	0
bin	0.3	0
bin	0.36666666666667	0
bin	0.43333333333333	0
bin	0.5	2
bin	0.56666666666667	1
bin	0.63333333333333	0
bin	0.7	1
bin	0.76666666666667	0
bin	0.83333333333333	1
bin	0.9	2
bin	0.96666666666667	43
bin	1.0333333333333	0
bin	1.1	0
bin	1.1666666666667	0
bin	1.2333333333333	0
bin	1.3	0
bin	1.3666666666667	0
bin	1.4333333333333	0
bin	1.5	0
statistic car_host_40.hostB.wlan[0].radio 	minSNIR:histogram
field count 2878
field mean 6.0380260749407
field stddev 1.6455388766381
field sum 17377.439043679
field sqrsum 112715.76546708
field min 0.26463351027174
field max 26.654230110527
attr source  minSNIR
attr title  "Min SNIR, histogram"
bin	-INF	0
bin	-12.930164789856	0
bin	-11.170858349839	0
bin	-9.411551909822	0
bin	-7.652245469805	0
bin	-5.8929390297879	0
bin	-4.1336325897709	0
bin	-2.3743261497538	0
bin	-0.61501970973679	7
bin	1.1442867302803	45
bin	2.9035931702973	13
bin	4.6628996103144	2136
bin	6.4222060503314	657
bin	8.1815124903485	1
bin	9.9408189303655	3
bin	11.700125370383	2
bin	13.4594318104	2
bin	15.218738250417	3
bin	16.978044690434	0
bin	18.737351130451	0
bin	20.496657570468	4
bin	22.255964010485	4
bin	24.015270450502	0
bin	25.774576890519	1
bin	27.533883330536	0
bin	29.293189770553	0
bin	31.05249621057	0
bin	32.811802650587	0
bin	34.571109090604	0
bin	36.330415530621	0
bin	38.089721970638	0
bin	39.849028410655	0
scalar car_host_40.hostB.wlan[0].radio 	transmissionState:count 	20
attr interpolationmode  sample-hold
attr source  transmissionStateChanged
attr title  "Radio transmission state, count"
scalar car_host_40.hostB.wlan[0].radio 	receptionState:count 	5834
attr interpolationmode  sample-hold
attr source  receptionStateChanged
attr title  "Radio reception state, count"
scalar car_host_40.hostB.wlan[0].radio 	radioMode:count 	12
attr interpolationmode  sample-hold
attr source  radioModeChanged
attr title  "Radio mode, count"
scalar car_host_40.hostC.lo0.lo 	droppedPkBitError:count 	0
attr interpolationmode  none
attr source  dropPkBitError
attr title  "packets dropped/bit error, count"
scalar car_host_40.hostC.lo0.lo 	droppedPkBitError:sum(packetBytes) 	0
attr interpolationmode  none
attr source  dropPkBitError
attr title  "packets dropped/bit error, sum(packetBytes)"
scalar car_host_40.hostC.lo0.lo 	rcvdPkFromHL:count 	0
attr interpolationmode  none
attr source  packetReceivedFromUpper
attr title  "packets received from higher layer, count"
scalar car_host_40.hostC.lo0.lo 	rcvdPkFromHL:sum(packetBytes) 	0
attr interpolationmode  none
attr source  packetReceivedFromUpper
attr title  "packets received from higher layer, sum(packetBytes)"
scalar car_host_40.hostC.lo0.lo 	passedUpPk:count 	0
attr interpolationmode  none
attr source  packetSentToUpper
attr title  "packets passed to higher layer, count"
scalar car_host_40.hostC.lo0.lo 	passedUpPk:sum(packetBytes) 	0
attr interpolationmode  none
attr source  packetSentToUpper
attr title  "packets passed to higher layer, sum(packetBytes)"
scalar car_host_40.hostC.wlan[0].mac 	numRetry 	0
scalar car_host_40.hostC.wlan[0].mac 	numSentWithoutRetry 	0
scalar car_host_40.hostC.wlan[0].mac 	numGivenUp 	0
scalar car_host_40.hostC.wlan[0].mac 	numCollision 	121
scalar car_host_40.hostC.wlan[0].mac 	numSent 	0
scalar car_host_40.hostC.wlan[0].mac 	numReceived 	0
scalar car_host_40.hostC.wlan[0].mac 	numSentBroadcast 	3
scalar car_host_40.hostC.wlan[0].mac 	numReceivedBroadcast 	46
statistic car_host_40.hostC.wlan[0].radio 	symbolErrorRate:histogram
field count 925
field mean 0.00071778636849319
field stddev 0.0088036857614819
field sum 0.6639523908562
field sqrsum 0.072091087855399
field min 1.0410809724929e-032
field max 0.20174772679966
attr source  symbolErrorRate
attr title  "Symbol error rate, histogram"
bin	-INF	0
bin	-0.10087386339983	0
bin	-0.087424014946519	0
bin	-0.073974166493208	0
bin	-0.060524318039898	0
bin	-0.047074469586587	0
bin	-0.033624621133276	0
bin	-0.020174772679966	0
bin	-0.0067249242266553	913
bin	0.0067249242266553	3
bin	0.020174772679966	5
bin	0.033624621133276	1
bin	0.047074469586587	0
bin	0.060524318039898	0
bin	0.073974166493208	1
bin	0.087424014946519	0
bin	0.10087386339983	0
bin	0.11432371185314	0
bin	0.12777356030645	1
bin	0.14122340875976	0
bin	0.15467325721307	0
bin	0.16812310566638	0
bin	0.18157295411969	0
bin	0.195022802573	1
bin	0.20847265102631	0
bin	0.22192249947962	0
bin	0.23537234793293	0
bin	0.24882219638625	0
bin	0.26227204483956	0
bin	0.27572189329287	0
bin	0.28917174174618	0
bin	0.30262159019949	0
statistic car_host_40.hostC.wlan[0].radio 	bitErrorRate:histogram
field count 925
field mean 0.00071778636849319
field stddev 0.0088036857614819
field sum 0.6639523908562
field sqrsum 0.072091087855399
field min 1.0410809724929e-032
field max 0.20174772679966
attr source  bitErrorRate
attr title  "Bit error rate, histogram"
bin	-INF	0
bin	-0.10087386339983	0
bin	-0.087424014946519	0
bin	-0.073974166493208	0
bin	-0.060524318039898	0
bin	-0.047074469586587	0
bin	-0.033624621133276	0
bin	-0.020174772679966	0
bin	-0.0067249242266553	913
bin	0.0067249242266553	3
bin	0.020174772679966	5
bin	0.033624621133276	1
bin	0.047074469586587	0
bin	0.060524318039898	0
bin	0.073974166493208	1
bin	0.087424014946519	0
bin	0.10087386339983	0
bin	0.11432371185314	0
bin	0.12777356030645	1
bin	0.14122340875976	0
bin	0.15467325721307	0
bin	0.16812310566638	0
bin	0.18157295411969	0
bin	0.195022802573	1
bin	0.20847265102631	0
bin	0.22192249947962	0
bin	0.23537234793293	0
bin	0.24882219638625	0
bin	0.26227204483956	0
bin	0.27572189329287	0
bin	0.28917174174618	0
bin	0.30262159019949	0
statistic car_host_40.hostC.wlan[0].radio 	packetErrorRate:histogram
field count 925
field mean 0.12843222747046
field stddev 0.13610861895155
field sum 118.79981041017
field sqrsum 32.375338159324
field min 0
field max 1
attr source  packetErrorRate
attr title  "Packet error rate, histogram"
bin	-INF	0
bin	-0.5	0
bin	-0.43333333333333	0
bin	-0.36666666666667	0
bin	-0.3	0
bin	-0.23333333333333	0
bin	-0.16666666666667	0
bin	-0.1	0
bin	-0.033333333333333	43
bin	0.033333333333333	663
bin	0.1	0
bin	0.16666666666667	0
bin	0.23333333333333	200
bin	0.3	2
bin	0.36666666666667	0
bin	0.43333333333333	1
bin	0.5	0
bin	0.56666666666667	1
bin	0.63333333333333	0
bin	0.7	0
bin	0.76666666666667	0
bin	0.83333333333333	1
bin	0.9	0
bin	0.96666666666667	14
bin	1.0333333333333	0
bin	1.1	0
bin	1.1666666666667	0
bin	1.2333333333333	0
bin	1.3	0
bin	1.3666666666667	0
bin	1.4333333333333	0
bin	1.5	0
statistic car_host_40.hostC.wlan[0].radio 	minSNIR:histogram
field count 925
field mean 4.5765669133667
field stddev 2.015202494393
field sum 4233.3243948642
field sqrsum 23126.494329393
field min 0.17447112024128
field max 35.121984220871
attr source  minSNIR
attr title  "Min SNIR, histogram"
bin	-INF	0
bin	-17.299285430074	0
bin	-14.969451223365	0
bin	-12.639617016656	0
bin	-10.309782809948	0
bin	-7.9799486032391	0
bin	-5.6501143965304	0
bin	-3.3202801898217	0
bin	-0.99044598311306	12
bin	1.3393882235956	18
bin	3.6692224303043	872
bin	5.999056637013	6
bin	8.3288908437216	4
bin	10.65872505043	6
bin	12.988559257139	0
bin	15.318393463848	3
bin	17.648227670556	1
bin	19.978061877265	0
bin	22.307896083974	0
bin	24.637730290682	1
bin	26.967564497391	0
bin	29.2973987041	0
bin	31.627232910808	0
bin	33.957067117517	2
bin	36.286901324226	0
bin	38.616735530934	0
bin	40.946569737643	0
bin	43.276403944352	0
bin	45.60623815106	0
bin	47.936072357769	0
bin	50.265906564478	0
bin	52.595740771186	0
scalar car_host_40.hostC.wlan[0].radio 	transmissionState:count 	12
attr interpolationmode  sample-hold
attr source  transmissionStateChanged
attr title  "Radio transmission state, count"
scalar car_host_40.hostC.wlan[0].radio 	receptionState:count 	1952
attr interpolationmode  sample-hold
attr source  receptionStateChanged
attr title  "Radio reception state, count"
scalar car_host_40.hostC.wlan[0].radio 	radioMode:count 	8
attr interpolationmode  sample-hold
attr source  radioModeChanged
attr title  "Radio mode, count"
scalar car_host_40.hostB1.lo0.lo 	droppedPkBitError:count 	0
attr interpolationmode  none
attr source  dropPkBitError
attr title  "packets dropped/bit error, count"
scalar car_host_40.hostB1.lo0.lo 	droppedPkBitError:sum(packetBytes) 	0
attr interpolationmode  none
attr source  dropPkBitError
attr title  "packets dropped/bit error, sum(packetBytes)"
scalar car_host_40.hostB1.lo0.lo 	rcvdPkFromHL:count 	0
attr interpolationmode  none
attr source  packetReceivedFromUpper
attr title  "packets received from higher layer, count"
scalar car_host_40.hostB1.lo0.lo 	rcvdPkFromHL:sum(packetBytes) 	0
attr interpolationmode  none
attr source  packetReceivedFromUpper
attr title  "packets received from higher layer, sum(packetBytes)"
scalar car_host_40.hostB1.lo0.lo 	passedUpPk:count 	0
attr interpolationmode  none
attr source  packetSentToUpper
attr title  "packets passed to higher layer, count"
scalar car_host_40.hostB1.lo0.lo 	passedUpPk:sum(packetBytes) 	0
attr interpolationmode  none
attr source  packetSentToUpper
attr title  "packets passed to higher layer, sum(packetBytes)"
scalar car_host_40.hostB1.wlan[0].mac 	numRetry 	0
scalar car_host_40.hostB1.wlan[0].mac 	numSentWithoutRetry 	0
scalar car_host_40.hostB1.wlan[0].mac 	numGivenUp 	0
scalar car_host_40.hostB1.wlan[0].mac 	numCollision 	52
scalar car_host_40.hostB1.wlan[0].mac 	numSent 	0
scalar car_host_40.hostB1.wlan[0].mac 	numReceived 	0
scalar car_host_40.hostB1.wlan[0].mac 	numSentBroadcast 	5
scalar car_host_40.hostB1.wlan[0].mac 	numReceivedBroadcast 	41
statistic car_host_40.hostB1.wlan[0].radio 	symbolErrorRate:histogram
field count 6397
field mean 6.5301932146769e-005
field stddev 0.0023784680249879
field sum 0.41773645994288
field sqrsum 0.036210155491075
field min 1.7054564688261e-023
field max 0.15916996373125
attr source  symbolErrorRate
attr title  "Symbol error rate, histogram"
bin	-INF	0
bin	-0.029576623206007	0
bin	-0.025633073445206	0
bin	-0.021689523684405	0
bin	-0.017745973923604	0
bin	-0.013802424162803	0
bin	-0.0098588744020022	0
bin	-0.0059153246412013	0
bin	-0.0019717748804004	6387
bin	0.0019717748804004	2
bin	0.0059153246412013	4
bin	0.0098588744020022	0
bin	0.013802424162803	0
bin	0.017745973923604	0
bin	0.021689523684405	0
bin	0.025633073445206	0
bin	0.029576623206007	0
bin	0.033520172966807	0
bin	0.037463722727608	0
bin	0.041407272488409	0
bin	0.04535082224921	0
bin	0.049294372010011	0
bin	0.053237921770812	0
bin	0.057181471531613	3
bin	0.061125021292414	0
bin	0.065068571053214	0
bin	0.069012120814015	0
bin	0.072955670574816	0
bin	0.076899220335617	0
bin	0.080842770096418	0
bin	0.084786319857219	0
bin	0.08872986961802	1
statistic car_host_40.hostB1.wlan[0].radio 	bitErrorRate:histogram
field count 6397
field mean 6.5301932146769e-005
field stddev 0.0023784680249879
field sum 0.41773645994288
field sqrsum 0.036210155491075
field min 1.7054564688261e-023
field max 0.15916996373125
attr source  bitErrorRate
attr title  "Bit error rate, histogram"
bin	-INF	0
bin	-0.029576623206007	0
bin	-0.025633073445206	0
bin	-0.021689523684405	0
bin	-0.017745973923604	0
bin	-0.013802424162803	0
bin	-0.0098588744020022	0
bin	-0.0059153246412013	0
bin	-0.0019717748804004	6387
bin	0.0019717748804004	2
bin	0.0059153246412013	4
bin	0.0098588744020022	0
bin	0.013802424162803	0
bin	0.017745973923604	0
bin	0.021689523684405	0
bin	0.025633073445206	0
bin	0.029576623206007	0
bin	0.033520172966807	0
bin	0.037463722727608	0
bin	0.041407272488409	0
bin	0.04535082224921	0
bin	0.049294372010011	0
bin	0.053237921770812	0
bin	0.057181471531613	3
bin	0.061125021292414	0
bin	0.065068571053214	0
bin	0.069012120814015	0
bin	0.072955670574816	0
bin	0.076899220335617	0
bin	0.080842770096418	0
bin	0.084786319857219	0
bin	0.08872986961802	1
statistic car_host_40.hostB1.wlan[0].radio 	packetErrorRate:histogram
field count 6397
field mean 0.0069237940030237
field stddev 0.07412736586007
field sum 44.291510237342
field sqrsum 35.451830591346
field min 0
field max 1
attr source  packetErrorRate
attr title  "Packet error rate, histogram"
bin	-INF	0
bin	-0.5	0
bin	-0.43333333333333	0
bin	-0.36666666666667	0
bin	-0.3	0
bin	-0.23333333333333	0
bin	-0.16666666666667	0
bin	-0.1	0
bin	-0.033333333333333	6345
bin	0.033333333333333	2
bin	0.1	3
bin	0.16666666666667	0
bin	0.23333333333333	0
bin	0.3	0
bin	0.36666666666667	0
bin	0.43333333333333	1
bin	0.5	2
bin	0.56666666666667	0
bin	0.63333333333333	15
bin	0.7	0
bin	0.76666666666667	1
bin	0.83333333333333	0
bin	0.9	3
bin	0.96666666666667	25
bin	1.0333333333333	0
bin	1.1	0
bin	1.1666666666667	0
bin	1.2333333333333	0
bin	1.3	0
bin	1.3666666666667	0
bin	1.4333333333333	0
bin	1.5	0
statistic car_host_40.hostB1.wlan[0].radio 	minSNIR:histogram
field count 6397
field mean 14.258405528271
field stddev 7.7298639752888
field sum 91211.020164351
field sqrsum 1682689.8122517
field min 0.24893867893465
field max 24.601113362982
attr source  minSNIR
attr title  "Min SNIR, histogram"
bin	-INF	0
bin	-11.385707191456	0
bin	-9.7862929445917	0
bin	-8.1868786977278	0
bin	-6.5874644508639	0
bin	-4.988050204	0
bin	-3.3886359571361	0
bin	-1.7892217102723	0
bin	-0.18980746340836	5
bin	1.4096067834555	27
bin	3.0090210303194	25
bin	4.6084352771833	4
bin	6.2078495240472	2732
bin	7.8072637709111	5
bin	9.406678017775	1
bin	11.006092264639	218
bin	12.605506511503	0
bin	14.204920758367	1415
bin	15.804335005231	0
bin	17.403749252094	0
bin	19.003163498958	4
bin	20.602577745822	0
bin	22.201991992686	4
bin	23.80140623955	1957
bin	25.400820486414	0
bin	27.000234733278	0
bin	28.599648980142	0
bin	30.199063227006	0
bin	31.79847747387	0
bin	33.397891720733	0
bin	34.997305967597	0
bin	36.596720214461	0
scalar car_host_40.hostB1.wlan[0].radio 	transmissionState:count 	20
attr interpolationmode  sample-hold
attr source  transmissionStateChanged
attr title  "Radio transmission state, count"
scalar car_host_40.hostB1.wlan[0].radio 	receptionState:count 	12870
attr interpolationmode  sample-hold
attr source  receptionStateChanged
attr title  "Radio reception state, count"
scalar car_host_40.hostB1.wlan[0].radio 	radioMode:count 	12
attr interpolationmode  sample-hold
attr source  radioModeChanged
attr title  "Radio mode, count"
scalar car_host_40.hostB2.lo0.lo 	droppedPkBitError:count 	0
attr interpolationmode  none
attr source  dropPkBitError
attr title  "packets dropped/bit error, count"
scalar car_host_40.hostB2.lo0.lo 	droppedPkBitError:sum(packetBytes) 	0
attr interpolationmode  none
attr source  dropPkBitError
attr title  "packets dropped/bit error, sum(packetBytes)"
scalar car_host_40.hostB2.lo0.lo 	rcvdPkFromHL:count 	0
attr interpolationmode  none
attr source  packetReceivedFromUpper
attr title  "packets received from higher layer, count"
scalar car_host_40.hostB2.lo0.lo 	rcvdPkFromHL:sum(packetBytes) 	0
attr interpolationmode  none
attr source  packetReceivedFromUpper
attr title  "packets received from higher layer, sum(packetBytes)"
scalar car_host_40.hostB2.lo0.lo 	passedUpPk:count 	0
attr interpolationmode  none
attr source  packetSentToUpper
attr title  "packets passed to higher layer, count"
scalar car_host_40.hostB2.lo0.lo 	passedUpPk:sum(packetBytes) 	0
attr interpolationmode  none
attr source  packetSentToUpper
attr title  "packets passed to higher layer, sum(packetBytes)"
scalar car_host_40.hostB2.wlan[0].mac 	numRetry 	0
scalar car_host_40.hostB2.wlan[0].mac 	numSentWithoutRetry 	0
scalar car_host_40.hostB2.wlan[0].mac 	numGivenUp 	0
scalar car_host_40.hostB2.wlan[0].mac 	numCollision 	798
scalar car_host_40.hostB2.wlan[0].mac 	numSent 	0
scalar car_host_40.hostB2.wlan[0].mac 	numReceived 	0
scalar car_host_40.hostB2.wlan[0].mac 	numSentBroadcast 	4
scalar car_host_40.hostB2.wlan[0].mac 	numReceivedBroadcast 	49
statistic car_host_40.hostB2.wlan[0].radio 	symbolErrorRate:histogram
field count 4198
field mean 0.0019310714156319
field stddev 0.012806558976814
field sum 8.1066378028225
field sqrsum 0.70399587455118
field min 5.759915431149e-028
field max 0.21151487275504
attr source  symbolErrorRate
attr title  "Symbol error rate, histogram"
bin	-INF	0
bin	-0.10575743637752	0
bin	-0.091656444860516	0
bin	-0.077555453343513	0
bin	-0.063454461826511	0
bin	-0.049353470309508	0
bin	-0.035252478792506	0
bin	-0.021151487275504	0
bin	-0.0070504957585012	3968
bin	0.0070504957585012	8
bin	0.021151487275504	204
bin	0.035252478792506	0
bin	0.049353470309508	1
bin	0.063454461826511	1
bin	0.077555453343513	0
bin	0.091656444860516	0
bin	0.10575743637752	0
bin	0.11985842789452	0
bin	0.13395941941152	0
bin	0.14806041092853	0
bin	0.16216140244553	0
bin	0.17626239396253	15
bin	0.19036338547953	0
bin	0.20446437699654	1
bin	0.21856536851354	0
bin	0.23266636003054	0
bin	0.24676735154754	0
bin	0.26086834306454	0
bin	0.27496933458155	0
bin	0.28907032609855	0
bin	0.30317131761555	0
bin	0.31727230913255	0
statistic car_host_40.hostB2.wlan[0].radio 	bitErrorRate:histogram
field count 4198
field mean 0.0019310714156319
field stddev 0.012806558976814
field sum 8.1066378028225
field sqrsum 0.70399587455118
field min 5.759915431149e-028
field max 0.21151487275504
attr source  bitErrorRate
attr title  "Bit error rate, histogram"
bin	-INF	0
bin	-0.10575743637752	0
bin	-0.091656444860516	0
bin	-0.077555453343513	0
bin	-0.063454461826511	0
bin	-0.049353470309508	0
bin	-0.035252478792506	0
bin	-0.021151487275504	0
bin	-0.0070504957585012	3968
bin	0.0070504957585012	8
bin	0.021151487275504	204
bin	0.035252478792506	0
bin	0.049353470309508	1
bin	0.063454461826511	1
bin	0.077555453343513	0
bin	0.091656444860516	0
bin	0.10575743637752	0
bin	0.11985842789452	0
bin	0.13395941941152	0
bin	0.14806041092853	0
bin	0.16216140244553	0
bin	0.17626239396253	15
bin	0.19036338547953	0
bin	0.20446437699654	1
bin	0.21856536851354	0
bin	0.23266636003054	0
bin	0.24676735154754	0
bin	0.26086834306454	0
bin	0.27496933458155	0
bin	0.28907032609855	0
bin	0.30317131761555	0
bin	0.31727230913255	0
statistic car_host_40.hostB2.wlan[0].radio 	packetErrorRate:histogram
field count 4198
field mean 0.18336542686959
field stddev 0.23789341799317
field sum 769.76806199855
field sqrsum 378.67083840675
field min 0
field max 1
attr source  packetErrorRate
attr title  "Packet error rate, histogram"
bin	-INF	0
bin	-0.5	0
bin	-0.43333333333333	0
bin	-0.36666666666667	0
bin	-0.3	0
bin	-0.23333333333333	0
bin	-0.16666666666667	0
bin	-0.1	0
bin	-0.033333333333333	1993
bin	0.033333333333333	5
bin	0.1	1
bin	0.16666666666667	0
bin	0.23333333333333	1965
bin	0.3	0
bin	0.36666666666667	0
bin	0.43333333333333	0
bin	0.5	0
bin	0.56666666666667	1
bin	0.63333333333333	1
bin	0.7	0
bin	0.76666666666667	0
bin	0.83333333333333	2
bin	0.9	0
bin	0.96666666666667	230
bin	1.0333333333333	0
bin	1.1	0
bin	1.1666666666667	0
bin	1.2333333333333	0
bin	1.3	0
bin	1.3666666666667	0
bin	1.4333333333333	0
bin	1.5	0
statistic car_host_40.hostB2.wlan[0].radio 	minSNIR:histogram
field count 4198
field mean 10.890900950271
field stddev 7.8357782654959
field sum 45720.002189239
field sqrsum 755625.3853354
field min 0.16047075798664
field max 29.702753824485
attr source  minSNIR
attr title  "Min SNIR, histogram"
bin	-INF	0
bin	-14.610670775263	0
bin	-12.641185237496	0
bin	-10.67169969973	0
bin	-8.702214161963	0
bin	-6.7327286241964	0
bin	-4.7632430864298	0
bin	-2.7937575486632	0
bin	-0.82427201089665	222
bin	1.1452135268699	13
bin	3.1146990646365	1981
bin	5.0841846024031	30
bin	7.0536701401697	2
bin	9.0231556779363	0
bin	10.992641215703	0
bin	12.962126753469	7
bin	14.931612291236	1
bin	16.901097829003	4
bin	18.870583366769	1933
bin	20.840068904536	0
bin	22.809554442302	0
bin	24.779039980069	0
bin	26.748525517836	2
bin	28.718011055602	3
bin	30.687496593369	0
bin	32.656982131135	0
bin	34.626467668902	0
bin	36.595953206668	0
bin	38.565438744435	0
bin	40.534924282202	0
bin	42.504409819968	0
bin	44.473895357735	0
scalar car_host_40.hostB2.wlan[0].radio 	transmissionState:count 	16
attr interpolationmode  sample-hold
attr source  transmissionStateChanged
attr title  "Radio transmission state, count"
scalar car_host_40.hostB2.wlan[0].radio 	receptionState:count 	12826
attr interpolationmode  sample-hold
attr source  receptionStateChanged
attr title  "Radio reception state, count"
scalar car_host_40.hostB2.wlan[0].radio 	radioMode:count 	10
attr interpolationmode  sample-hold
attr source  radioModeChanged
attr title  "Radio mode, count"
scalar car_host_40.hostB3.lo0.lo 	droppedPkBitError:count 	0
attr interpolationmode  none
attr source  dropPkBitError
attr title  "packets dropped/bit error, count"
scalar car_host_40.hostB3.lo0.lo 	droppedPkBitError:sum(packetBytes) 	0
attr interpolationmode  none
attr source  dropPkBitError
attr title  "packets dropped/bit error, sum(packetBytes)"
scalar car_host_40.hostB3.lo0.lo 	rcvdPkFromHL:count 	0
attr interpolationmode  none
attr source  packetReceivedFromUpper
attr title  "packets received from higher layer, count"
scalar car_host_40.hostB3.lo0.lo 	rcvdPkFromHL:sum(packetBytes) 	0
attr interpolationmode  none
attr source  packetReceivedFromUpper
attr title  "packets received from higher layer, sum(packetBytes)"
scalar car_host_40.hostB3.lo0.lo 	passedUpPk:count 	0
attr interpolationmode  none
attr source  packetSentToUpper
attr title  "packets passed to higher layer, count"
scalar car_host_40.hostB3.lo0.lo 	passedUpPk:sum(packetBytes) 	0
attr interpolationmode  none
attr source  packetSentToUpper
attr title  "packets passed to higher layer, sum(packetBytes)"
scalar car_host_40.hostB3.wlan[0].mac 	numRetry 	0
scalar car_host_40.hostB3.wlan[0].mac 	numSentWithoutRetry 	0
scalar car_host_40.hostB3.wlan[0].mac 	numGivenUp 	0
scalar car_host_40.hostB3.wlan[0].mac 	numCollision 	878
scalar car_host_40.hostB3.wlan[0].mac 	numSent 	1962
scalar car_host_40.hostB3.wlan[0].mac 	numReceived 	1963
scalar car_host_40.hostB3.wlan[0].mac 	numSentBroadcast 	4
scalar car_host_40.hostB3.wlan[0].mac 	numReceivedBroadcast 	48
statistic car_host_40.hostB3.wlan[0].radio 	symbolErrorRate:histogram
field count 2891
field mean 0.0107232257634
field stddev 0.02245491241627
field sum 31.000845681991
field sqrsum 1.789633801893
field min 6.966044874254e-024
field max 0.20923220183829
attr source  symbolErrorRate
attr title  "Symbol error rate, histogram"
bin	-INF	0
bin	-0.10461610091914	0
bin	-0.090667287463258	0
bin	-0.076718474007372	0
bin	-0.062769660551486	0
bin	-0.048820847095601	0
bin	-0.034872033639715	0
bin	-0.020923220183829	0
bin	-0.0069744067279429	2061
bin	0.0069744067279429	3
bin	0.020923220183829	655
bin	0.034872033639715	0
bin	0.048820847095601	2
bin	0.062769660551486	0
bin	0.076718474007372	2
bin	0.090667287463258	167
bin	0.10461610091914	0
bin	0.11856491437503	0
bin	0.13251372783092	0
bin	0.1464625412868	0
bin	0.16041135474269	0
bin	0.17436016819857	0
bin	0.18830898165446	0
bin	0.20225779511035	1
bin	0.21620660856623	0
bin	0.23015542202212	0
bin	0.244104235478	0
bin	0.25805304893389	0
bin	0.27200186238977	0
bin	0.28595067584566	0
bin	0.29989948930155	0
bin	0.31384830275743	0
statistic car_host_40.hostB3.wlan[0].radio 	bitErrorRate:histogram
field count 2891
field mean 0.0107232257634
field stddev 0.02245491241627
field sum 31.000845681991
field sqrsum 1.789633801893
field min 6.966044874254e-024
field max 0.20923220183829
attr source  bitErrorRate
attr title  "Bit error rate, histogram"
bin	-INF	0
bin	-0.10461610091914	0
bin	-0.090667287463258	0
bin	-0.076718474007372	0
bin	-0.062769660551486	0
bin	-0.048820847095601	0
bin	-0.034872033639715	0
bin	-0.020923220183829	0
bin	-0.0069744067279429	2061
bin	0.0069744067279429	3
bin	0.020923220183829	655
bin	0.034872033639715	0
bin	0.048820847095601	2
bin	0.062769660551486	0
bin	0.076718474007372	2
bin	0.090667287463258	167
bin	0.10461610091914	0
bin	0.11856491437503	0
bin	0.13251372783092	0
bin	0.1464625412868	0
bin	0.16041135474269	0
bin	0.17436016819857	0
bin	0.18830898165446	0
bin	0.20225779511035	1
bin	0.21620660856623	0
bin	0.23015542202212	0
bin	0.244104235478	0
bin	0.25805304893389	0
bin	0.27200186238977	0
bin	0.28595067584566	0
bin	0.29989948930155	0
bin	0.31384830275743	0
statistic car_host_40.hostB3.wlan[0].radio 	packetErrorRate:histogram
field count 2891
field mean 0.30270410611002
field stddev 0.45852682025073
field sum 875.11757076408
field sqrsum 872.51506372923
field min 0
field max 1
attr source  packetErrorRate
attr title  "Packet error rate, histogram"
bin	-INF	0
bin	-0.5	0
bin	-0.43333333333333	0
bin	-0.36666666666667	0
bin	-0.3	0
bin	-0.23333333333333	0
bin	-0.16666666666667	0
bin	-0.1	0
bin	-0.033333333333333	2010
bin	0.033333333333333	7
bin	0.1	0
bin	0.16666666666667	0
bin	0.23333333333333	0
bin	0.3	0
bin	0.36666666666667	0
bin	0.43333333333333	0
bin	0.5	0
bin	0.56666666666667	0
bin	0.63333333333333	0
bin	0.7	2
bin	0.76666666666667	0
bin	0.83333333333333	2
bin	0.9	0
bin	0.96666666666667	870
bin	1.0333333333333	0
bin	1.1	0
bin	1.1666666666667	0
bin	1.2333333333333	0
bin	1.3	0
bin	1.3666666666667	0
bin	1.4333333333333	0
bin	1.5	0
statistic car_host_40.hostB3.wlan[0].radio 	minSNIR:histogram
field count 2891
field mean 5.093454320356
field stddev 2.9439025267764
field sum 14725.176440149
field sqrsum 100048.37798898
field min 0.16365593692028
field max 25.04441938908
attr source  minSNIR
attr title  "Min SNIR, histogram"
bin	-INF	0
bin	-12.276725789159	0
bin	-10.618008225682	0
bin	-8.9592906622048	0
bin	-7.3005730987275	0
bin	-5.6418555352502	0
bin	-3.9831379717729	0
bin	-2.3244204082956	0
bin	-0.66570284481836	174
bin	0.99301471865892	700
bin	2.6517322821362	10
bin	4.3104498456135	10
bin	5.9691674090908	1973
bin	7.6278849725681	3
bin	9.2866025360453	7
bin	10.945320099523	0
bin	12.604037663	0
bin	14.262755226477	0
bin	15.921472789954	0
bin	17.580190353432	0
bin	19.238907916909	10
bin	20.897625480386	0
bin	22.556343043864	0
bin	24.215060607341	4
bin	25.873778170818	0
bin	27.532495734295	0
bin	29.191213297773	0
bin	30.84993086125	0
bin	32.508648424727	0
bin	34.167365988205	0
bin	35.826083551682	0
bin	37.484801115159	0
scalar car_host_40.hostB3.wlan[0].radio 	transmissionState:count 	7866
attr interpolationmode  sample-hold
attr source  transmissionStateChanged
attr title  "Radio transmission state, count"
scalar car_host_40.hostB3.wlan[0].radio 	receptionState:count 	13611
attr interpolationmode  sample-hold
attr source  receptionStateChanged
attr title  "Radio reception state, count"
scalar car_host_40.hostB3.wlan[0].radio 	radioMode:count 	3935
attr interpolationmode  sample-hold
attr source  radioModeChanged
attr title  "Radio mode, count"
scalar car_host_40.hostB4.lo0.lo 	droppedPkBitError:count 	0
attr interpolationmode  none
attr source  dropPkBitError
attr title  "packets dropped/bit error, count"
scalar car_host_40.hostB4.lo0.lo 	droppedPkBitError:sum(packetBytes) 	0
attr interpolationmode  none
attr source  dropPkBitError
attr title  "packets dropped/bit error, sum(packetBytes)"
scalar car_host_40.hostB4.lo0.lo 	rcvdPkFromHL:count 	0
attr interpolationmode  none
attr source  packetReceivedFromUpper
attr title  "packets received from higher layer, count"
scalar car_host_40.hostB4.lo0.lo 	rcvdPkFromHL:sum(packetBytes) 	0
attr interpolationmode  none
attr source  packetReceivedFromUpper
attr title  "packets received from higher layer, sum(packetBytes)"
scalar car_host_40.hostB4.lo0.lo 	passedUpPk:count 	0
attr interpolationmode  none
attr source  packetSentToUpper
attr title  "packets passed to higher layer, count"
scalar car_host_40.hostB4.lo0.lo 	passedUpPk:sum(packetBytes) 	0
attr interpolationmode  none
attr source  packetSentToUpper
attr title  "packets passed to higher layer, sum(packetBytes)"
scalar car_host_40.hostB4.wlan[0].mac 	numRetry 	0
scalar car_host_40.hostB4.wlan[0].mac 	numSentWithoutRetry 	0
scalar car_host_40.hostB4.wlan[0].mac 	numGivenUp 	0
scalar car_host_40.hostB4.wlan[0].mac 	numCollision 	910
scalar car_host_40.hostB4.wlan[0].mac 	numSent 	0
scalar car_host_40.hostB4.wlan[0].mac 	numReceived 	0
scalar car_host_40.hostB4.wlan[0].mac 	numSentBroadcast 	5
scalar car_host_40.hostB4.wlan[0].mac 	numReceivedBroadcast 	49
statistic car_host_40.hostB4.wlan[0].radio 	symbolErrorRate:histogram
field count 6408
field mean 0.0010025493427635
field stddev 0.0069565720611418
field sum 6.4243361884283
field sqrsum 0.31650039827519
field min 4.9013873913252e-036
field max 0.2365321248673
attr source  symbolErrorRate
attr title  "Symbol error rate, histogram"
bin	-INF	0
bin	-0.11826606243365	0
bin	-0.10249725410916	0
bin	-0.086728445784676	0
bin	-0.07095963746019	0
bin	-0.055190829135703	0
bin	-0.039422020811217	0
bin	-0.02365321248673	0
bin	-0.0078844041622433	6384
bin	0.0078844041622433	1
bin	0.02365321248673	1
bin	0.039422020811217	0
bin	0.055190829135703	0
bin	0.07095963746019	15
bin	0.086728445784676	0
bin	0.10249725410916	0
bin	0.11826606243365	3
bin	0.13403487075814	0
bin	0.14980367908262	0
bin	0.16557248740711	1
bin	0.1813412957316	1
bin	0.19711010405608	1
bin	0.21287891238057	0
bin	0.22864772070506	1
bin	0.24441652902954	0
bin	0.26018533735403	0
bin	0.27595414567852	0
bin	0.291722954003	0
bin	0.30749176232749	0
bin	0.32326057065198	0
bin	0.33902937897646	0
bin	0.35479818730095	0
statistic car_host_40.hostB4.wlan[0].radio 	bitErrorRate:histogram
field count 6408
field mean 0.0010025493427635
field stddev 0.0069565720611418
field sum 6.4243361884283
field sqrsum 0.31650039827519
field min 4.9013873913252e-036
field max 0.2365321248673
attr source  bitErrorRate
attr title  "Bit error rate, histogram"
bin	-INF	0
bin	-0.11826606243365	0
bin	-0.10249725410916	0
bin	-0.086728445784676	0
bin	-0.07095963746019	0
bin	-0.055190829135703	0
bin	-0.039422020811217	0
bin	-0.02365321248673	0
bin	-0.0078844041622433	6384
bin	0.0078844041622433	1
bin	0.02365321248673	1
bin	0.039422020811217	0
bin	0.055190829135703	0
bin	0.07095963746019	15
bin	0.086728445784676	0
bin	0.10249725410916	0
bin	0.11826606243365	3
bin	0.13403487075814	0
bin	0.14980367908262	0
bin	0.16557248740711	1
bin	0.1813412957316	1
bin	0.19711010405608	1
bin	0.21287891238057	0
bin	0.22864772070506	1
bin	0.24441652902954	0
bin	0.26018533735403	0
bin	0.27595414567852	0
bin	0.291722954003	0
bin	0.30749176232749	0
bin	0.32326057065198	0
bin	0.33902937897646	0
bin	0.35479818730095	0
statistic car_host_40.hostB4.wlan[0].radio 	packetErrorRate:histogram
field count 6408
field mean 0.14284729425656
field stddev 0.3322428658111
field sum 915.36546159606
field sqrsum 837.99623674528
field min 0
field max 1
attr source  packetErrorRate
attr title  "Packet error rate, histogram"
bin	-INF	0
bin	-0.5	0
bin	-0.43333333333333	0
bin	-0.36666666666667	0
bin	-0.3	0
bin	-0.23333333333333	0
bin	-0.16666666666667	0
bin	-0.1	0
bin	-0.033333333333333	3928
bin	0.033333333333333	1629
bin	0.1	16
bin	0.16666666666667	0
bin	0.23333333333333	0
bin	0.3	0
bin	0.36666666666667	1
bin	0.43333333333333	0
bin	0.5	0
bin	0.56666666666667	0
bin	0.63333333333333	0
bin	0.7	0
bin	0.76666666666667	0
bin	0.83333333333333	1
bin	0.9	0
bin	0.96666666666667	833
bin	1.0333333333333	0
bin	1.1	0
bin	1.1666666666667	0
bin	1.2333333333333	0
bin	1.3	0
bin	1.3666666666667	0
bin	1.4333333333333	0
bin	1.5	0
statistic car_host_40.hostB4.wlan[0].radio 	minSNIR:histogram
field count 6408
field mean 13.184863300582
field stddev 8.8659440666593
field sum 84488.604030131
field sqrsum 1617592.7001797
field min 0.12870236902681
field max 38.927145572044
attr source  minSNIR
attr title  "Min SNIR, histogram"
bin	-INF	0
bin	-19.270519232482	0
bin	-16.68395635228	0
bin	-14.097393472079	0
bin	-11.510830591878	0
bin	-8.9242677116771	0
bin	-6.337704831476	0
bin	-3.7511419512749	0
bin	-1.1645790710737	24
bin	1.4219838091274	818
bin	4.0085466893285	1654
bin	6.5951095695296	10
bin	9.1816724497307	2
bin	11.768235329932	1957
bin	14.354798210133	0
bin	16.941361090334	7
bin	19.527923970535	0
bin	22.114486850736	3
bin	24.701049730937	1929
bin	27.287612611138	0
bin	29.87417549134	0
bin	32.460738371541	0
bin	35.047301251742	0
bin	37.633864131943	4
bin	40.220427012144	0
bin	42.806989892345	0
bin	45.393552772546	0
bin	47.980115652747	0
bin	50.566678532949	0
bin	53.15324141315	0
bin	55.739804293351	0
bin	58.326367173552	0
scalar car_host_40.hostB4.wlan[0].radio 	transmissionState:count 	20
attr interpolationmode  sample-hold
attr source  transmissionStateChanged
attr title  "Radio transmission state, count"
scalar car_host_40.hostB4.wlan[0].radio 	receptionState:count 	12898
attr interpolationmode  sample-hold
attr source  receptionStateChanged
attr title  "Radio reception state, count"
scalar car_host_40.hostB4.wlan[0].radio 	radioMode:count 	12
attr interpolationmode  sample-hold
attr source  radioModeChanged
attr title  "Radio mode, count"
scalar car_host_40.hostC1.lo0.lo 	droppedPkBitError:count 	0
attr interpolationmode  none
attr source  dropPkBitError
attr title  "packets dropped/bit error, count"
scalar car_host_40.hostC1.lo0.lo 	droppedPkBitError:sum(packetBytes) 	0
attr interpolationmode  none
attr source  dropPkBitError
attr title  "packets dropped/bit error, sum(packetBytes)"
scalar car_host_40.hostC1.lo0.lo 	rcvdPkFromHL:count 	0
attr interpolationmode  none
attr source  packetReceivedFromUpper
attr title  "packets received from higher layer, count"
scalar car_host_40.hostC1.lo0.lo 	rcvdPkFromHL:sum(packetBytes) 	0
attr interpolationmode  none
attr source  packetReceivedFromUpper
attr title  "packets received from higher layer, sum(packetBytes)"
scalar car_host_40.hostC1.lo0.lo 	passedUpPk:count 	0
attr interpolationmode  none
attr source  packetSentToUpper
attr title  "packets passed to higher layer, count"
scalar car_host_40.hostC1.lo0.lo 	passedUpPk:sum(packetBytes) 	0
attr interpolationmode  none
attr source  packetSentToUpper
attr title  "packets passed to higher layer, sum(packetBytes)"
scalar car_host_40.hostC1.wlan[0].mac 	numRetry 	0
scalar car_host_40.hostC1.wlan[0].mac 	numSentWithoutRetry 	0
scalar car_host_40.hostC1.wlan[0].mac 	numGivenUp 	0
scalar car_host_40.hostC1.wlan[0].mac 	numCollision 	130
scalar car_host_40.hostC1.wlan[0].mac 	numSent 	0
scalar car_host_40.hostC1.wlan[0].mac 	numReceived 	0
scalar car_host_40.hostC1.wlan[0].mac 	numSentBroadcast 	3
scalar car_host_40.hostC1.wlan[0].mac 	numReceivedBroadcast 	35
statistic car_host_40.hostC1.wlan[0].radio 	symbolErrorRate:histogram
field count 915
field mean 0.0011511348024426
field stddev 0.011778447402743
field sum 1.053288344235
field sqrsum 0.12801336329238
field min 7.3178802897831e-037
field max 0.21766457213514
attr source  symbolErrorRate
attr title  "Symbol error rate, histogram"
bin	-INF	0
bin	-0.10883228606757	0
bin	-0.094321314591892	0
bin	-0.079810343116216	0
bin	-0.065299371640541	0
bin	-0.050788400164865	0
bin	-0.036277428689189	0
bin	-0.021766457213514	0
bin	-0.0072554857378378	901
bin	0.0072554857378378	3
bin	0.021766457213514	3
bin	0.036277428689189	1
bin	0.050788400164865	0
bin	0.065299371640541	1
bin	0.079810343116216	2
bin	0.094321314591892	1
bin	0.10883228606757	1
bin	0.12334325754324	0
bin	0.13785422901892	0
bin	0.15236520049459	0
bin	0.16687617197027	0
bin	0.18138714344595	1
bin	0.19589811492162	0
bin	0.2104090863973	1
bin	0.22492005787297	0
bin	0.23943102934865	0
bin	0.25394200082432	0
bin	0.2684529723	0
bin	0.28296394377568	0
bin	0.29747491525135	0
bin	0.31198588672703	0
bin	0.3264968582027	0
statistic car_host_40.hostC1.wlan[0].radio 	bitErrorRate:histogram
field count 915
field mean 0.0011511348024426
field stddev 0.011778447402743
field sum 1.053288344235
field sqrsum 0.12801336329238
field min 7.3178802897831e-037
field max 0.21766457213514
attr source  bitErrorRate
attr title  "Bit error rate, histogram"
bin	-INF	0
bin	-0.10883228606757	0
bin	-0.094321314591892	0
bin	-0.079810343116216	0
bin	-0.065299371640541	0
bin	-0.050788400164865	0
bin	-0.036277428689189	0
bin	-0.021766457213514	0
bin	-0.0072554857378378	901
bin	0.0072554857378378	3
bin	0.021766457213514	3
bin	0.036277428689189	1
bin	0.050788400164865	0
bin	0.065299371640541	1
bin	0.079810343116216	2
bin	0.094321314591892	1
bin	0.10883228606757	1
bin	0.12334325754324	0
bin	0.13785422901892	0
bin	0.15236520049459	0
bin	0.16687617197027	0
bin	0.18138714344595	1
bin	0.19589811492162	0
bin	0.2104090863973	1
bin	0.22492005787297	0
bin	0.23943102934865	0
bin	0.25394200082432	0
bin	0.2684529723	0
bin	0.28296394377568	0
bin	0.29747491525135	0
bin	0.31198588672703	0
bin	0.3264968582027	0
statistic car_host_40.hostC1.wlan[0].radio 	packetErrorRate:histogram
field count 915
field mean 0.14104241419699
field stddev 0.13953298215639
field sum 129.05380899024
field sqrsum 35.997140923342
field min 0
field max 1
attr source  packetErrorRate
attr title  "Packet error rate, histogram"
bin	-INF	0
bin	-0.5	0
bin	-0.43333333333333	0
bin	-0.36666666666667	0
bin	-0.3	0
bin	-0.23333333333333	0
bin	-0.16666666666667	0
bin	-0.1	0
bin	-0.033333333333333	39
bin	0.033333333333333	654
bin	0.1	0
bin	0.16666666666667	0
bin	0.23333333333333	201
bin	0.3	1
bin	0.36666666666667	0
bin	0.43333333333333	0
bin	0.5	0
bin	0.56666666666667	0
bin	0.63333333333333	0
bin	0.7	2
bin	0.76666666666667	1
bin	0.83333333333333	0
bin	0.9	3
bin	0.96666666666667	14
bin	1.0333333333333	0
bin	1.1	0
bin	1.1666666666667	0
bin	1.2333333333333	0
bin	1.3	0
bin	1.3666666666667	0
bin	1.4333333333333	0
bin	1.5	0
statistic car_host_40.hostC1.wlan[0].radio 	minSNIR:histogram
field count 915
field mean 4.6049736311719
field stddev 2.666869389693
field sum 4213.5508725222
field sqrsum 25903.834461863
field min 0.15214090595213
field max 39.872114374685
attr source  minSNIR
attr title  "Min SNIR, histogram"
bin	-INF	0
bin	-19.707845828414	0
bin	-17.059847597165	0
bin	-14.411849365917	0
bin	-11.763851134668	0
bin	-9.1158529034189	0
bin	-6.46785467217	0
bin	-3.8198564409212	0
bin	-1.1718582096723	14
bin	1.4761400215766	216
bin	4.1241382528254	665
bin	6.7721364840743	2
bin	9.4201347153231	6
bin	12.068132946572	0
bin	14.716131177821	2
bin	17.36412940907	3
bin	20.012127640319	3
bin	22.660125871567	1
bin	25.308124102816	0
bin	27.956122334065	0
bin	30.604120565314	0
bin	33.252118796563	0
bin	35.900117027812	0
bin	38.548115259061	3
bin	41.196113490309	0
bin	43.844111721558	0
bin	46.492109952807	0
bin	49.140108184056	0
bin	51.788106415305	0
bin	54.436104646554	0
bin	57.084102877803	0
bin	59.732101109051	0
scalar car_host_40.hostC1.wlan[0].radio 	transmissionState:count 	12
attr interpolationmode  sample-hold
attr source  transmissionStateChanged
attr title  "Radio transmission state, count"
scalar car_host_40.hostC1.wlan[0].radio 	receptionState:count 	1881
attr interpolationmode  sample-hold
attr source  receptionStateChanged
attr title  "Radio reception state, count"
scalar car_host_40.hostC1.wlan[0].radio 	radioMode:count 	8
attr interpolationmode  sample-hold
attr source  radioModeChanged
attr title  "Radio mode, count"
scalar car_host_40.hostC2.lo0.lo 	droppedPkBitError:count 	0
attr interpolationmode  none
attr source  dropPkBitError
attr title  "packets dropped/bit error, count"
scalar car_host_40.hostC2.lo0.lo 	droppedPkBitError:sum(packetBytes) 	0
attr interpolationmode  none
attr source  dropPkBitError
attr title  "packets dropped/bit error, sum(packetBytes)"
scalar car_host_40.hostC2.lo0.lo 	rcvdPkFromHL:count 	0
attr interpolationmode  none
attr source  packetReceivedFromUpper
attr title  "packets received from higher layer, count"
scalar car_host_40.hostC2.lo0.lo 	rcvdPkFromHL:sum(packetBytes) 	0
attr interpolationmode  none
attr source  packetReceivedFromUpper
attr title  "packets received from higher layer, sum(packetBytes)"
scalar car_host_40.hostC2.lo0.lo 	passedUpPk:count 	0
attr interpolationmode  none
attr source  packetSentToUpper
attr title  "packets passed to higher layer, count"
scalar car_host_40.hostC2.lo0.lo 	passedUpPk:sum(packetBytes) 	0
attr interpolationmode  none
attr source  packetSentToUpper
attr title  "packets passed to higher layer, sum(packetBytes)"
scalar car_host_40.hostC2.wlan[0].mac 	numRetry 	0
scalar car_host_40.hostC2.wlan[0].mac 	numSentWithoutRetry 	0
scalar car_host_40.hostC2.wlan[0].mac 	numGivenUp 	0
scalar car_host_40.hostC2.wlan[0].mac 	numCollision 	1111
scalar car_host_40.hostC2.wlan[0].mac 	numSent 	856
scalar car_host_40.hostC2.wlan[0].mac 	numReceived 	856
scalar car_host_40.hostC2.wlan[0].mac 	numSentBroadcast 	4
scalar car_host_40.hostC2.wlan[0].mac 	numReceivedBroadcast 	40
statistic car_host_40.hostC2.wlan[0].radio 	symbolErrorRate:histogram
field count 2010
field mean 0.00019012801200333
field stddev 0.0010011036862205
field sum 0.3821573041267
field sqrsum 0.0020860958669498
field min 5.086614338404e-035
field max 0.026045148140393
attr source  symbolErrorRate
attr title  "Symbol error rate, histogram"
bin	-INF	0
bin	-0.013022574070197	0
bin	-0.011286230860837	0
bin	-0.0095498876514775	0
bin	-0.0078135444421179	0
bin	-0.0060772012327584	0
bin	-0.0043408580233989	0
bin	-0.0026045148140393	0
bin	-0.00086817160467977	1971
bin	0.00086817160467977	20
bin	0.0026045148140393	0
bin	0.0043408580233989	1
bin	0.0060772012327584	16
bin	0.0078135444421179	0
bin	0.0095498876514775	0
bin	0.011286230860837	0
bin	0.013022574070197	0
bin	0.014758917279556	0
bin	0.016495260488916	0
bin	0.018231603698275	0
bin	0.019967946907635	0
bin	0.021704290116994	0
bin	0.023440633326354	0
bin	0.025176976535713	2
bin	0.026913319745073	0
bin	0.028649662954432	0
bin	0.030386006163792	0
bin	0.032122349373152	0
bin	0.033858692582511	0
bin	0.035595035791871	0
bin	0.03733137900123	0
bin	0.03906772221059	0
statistic car_host_40.hostC2.wlan[0].radio 	bitErrorRate:histogram
field count 2010
field mean 0.00019012801200333
field stddev 0.0010011036862205
field sum 0.3821573041267
field sqrsum 0.0020860958669498
field min 5.086614338404e-035
field max 0.026045148140393
attr source  bitErrorRate
attr title  "Bit error rate, histogram"
bin	-INF	0
bin	-0.013022574070197	0
bin	-0.011286230860837	0
bin	-0.0095498876514775	0
bin	-0.0078135444421179	0
bin	-0.0060772012327584	0
bin	-0.0043408580233989	0
bin	-0.0026045148140393	0
bin	-0.00086817160467977	1971
bin	0.00086817160467977	20
bin	0.0026045148140393	0
bin	0.0043408580233989	1
bin	0.0060772012327584	16
bin	0.0078135444421179	0
bin	0.0095498876514775	0
bin	0.011286230860837	0
bin	0.013022574070197	0
bin	0.014758917279556	0
bin	0.016495260488916	0
bin	0.018231603698275	0
bin	0.019967946907635	0
bin	0.021704290116994	0
bin	0.023440633326354	0
bin	0.025176976535713	2
bin	0.026913319745073	0
bin	0.028649662954432	0
bin	0.030386006163792	0
bin	0.032122349373152	0
bin	0.033858692582511	0
bin	0.035595035791871	0
bin	0.03733137900123	0
bin	0.03906772221059	0
statistic car_host_40.hostC2.wlan[0].radio 	packetErrorRate:histogram
field count 2010
field mean 0.53916561865136
field stddev 0.10033435695763
field sum 1083.7228934892
field sqrsum 604.53069353563
field min 0
field max 1
attr source  packetErrorRate
attr title  "Packet error rate, histogram"
bin	-INF	0
bin	-0.5	0
bin	-0.43333333333333	0
bin	-0.36666666666667	0
bin	-0.3	0
bin	-0.23333333333333	0
bin	-0.16666666666667	0
bin	-0.1	0
bin	-0.033333333333333	35
bin	0.033333333333333	10
bin	0.1	0
bin	0.16666666666667	0
bin	0.23333333333333	0
bin	0.3	1
bin	0.36666666666667	1
bin	0.43333333333333	1
bin	0.5	1925
bin	0.56666666666667	1
bin	0.63333333333333	0
bin	0.7	0
bin	0.76666666666667	0
bin	0.83333333333333	0
bin	0.9	1
bin	0.96666666666667	35
bin	1.0333333333333	0
bin	1.1	0
bin	1.1666666666667	0
bin	1.2333333333333	0
bin	1.3	0
bin	1.3666666666667	0
bin	1.4333333333333	0
bin	1.5	0
statistic car_host_40.hostC2.wlan[0].radio 	minSNIR:histogram
field count 2010
field mean 3.6007533373772
field stddev 1.6213783380274
field sum 7237.5142081282
field sqrsum 31341.898678717
field min 0.94321658643901
field max 37.764788864935
attr source  minSNIR
attr title  "Min SNIR, histogram"
bin	-INF	0
bin	-17.467569552809	0
bin	-15.012798067576	0
bin	-12.558026582343	0
bin	-10.10325509711	0
bin	-7.6484836118768	0
bin	-5.1937121266437	0
bin	-2.7389406414106	0
bin	-0.28416915617753	37
bin	2.1706023290556	1941
bin	4.6253738142887	9
bin	7.0801452995218	5
bin	9.5349167847548	8
bin	11.989688269988	1
bin	14.444459755221	3
bin	16.899231240454	0
bin	19.354002725687	0
bin	21.80877421092	2
bin	24.263545696153	2
bin	26.718317181387	0
bin	29.17308866662	0
bin	31.627860151853	0
bin	34.082631637086	0
bin	36.537403122319	2
bin	38.992174607552	0
bin	41.446946092785	0
bin	43.901717578018	0
bin	46.356489063251	0
bin	48.811260548484	0
bin	51.266032033717	0
bin	53.720803518951	0
bin	56.175575004184	0
scalar car_host_40.hostC2.wlan[0].radio 	transmissionState:count 	3440
attr interpolationmode  sample-hold
attr source  transmissionStateChanged
attr title  "Radio transmission state, count"
scalar car_host_40.hostC2.wlan[0].radio 	receptionState:count 	5800
attr interpolationmode  sample-hold
attr source  receptionStateChanged
attr title  "Radio reception state, count"
scalar car_host_40.hostC2.wlan[0].radio 	radioMode:count 	1722
attr interpolationmode  sample-hold
attr source  radioModeChanged
attr title  "Radio mode, count"
scalar car_host_40.hostC3.lo0.lo 	droppedPkBitError:count 	0
attr interpolationmode  none
attr source  dropPkBitError
attr title  "packets dropped/bit error, count"
scalar car_host_40.hostC3.lo0.lo 	droppedPkBitError:sum(packetBytes) 	0
attr interpolationmode  none
attr source  dropPkBitError
attr title  "packets dropped/bit error, sum(packetBytes)"
scalar car_host_40.hostC3.lo0.lo 	rcvdPkFromHL:count 	0
attr interpolationmode  none
attr source  packetReceivedFromUpper
attr title  "packets received from higher layer, count"
scalar car_host_40.hostC3.lo0.lo 	rcvdPkFromHL:sum(packetBytes) 	0
attr interpolationmode  none
attr source  packetReceivedFromUpper
attr title  "packets received from higher layer, sum(packetBytes)"
scalar car_host_40.hostC3.lo0.lo 	passedUpPk:count 	0
attr interpolationmode  none
attr source  packetSentToUpper
attr title  "packets passed to higher layer, count"
scalar car_host_40.hostC3.lo0.lo 	passedUpPk:sum(packetBytes) 	0
attr interpolationmode  none
attr source  packetSentToUpper
attr title  "packets passed to higher layer, sum(packetBytes)"
scalar car_host_40.hostC3.wlan[0].mac 	numRetry 	0
scalar car_host_40.hostC3.wlan[0].mac 	numSentWithoutRetry 	0
scalar car_host_40.hostC3.wlan[0].mac 	numGivenUp 	0
scalar car_host_40.hostC3.wlan[0].mac 	numCollision 	8
scalar car_host_40.hostC3.wlan[0].mac 	numSent 	0
scalar car_host_40.hostC3.wlan[0].mac 	numReceived 	0
scalar car_host_40.hostC3.wlan[0].mac 	numSentBroadcast 	4
scalar car_host_40.hostC3.wlan[0].mac 	numReceivedBroadcast 	33
statistic car_host_40.hostC3.wlan[0].radio 	symbolErrorRate:histogram
field count 44
field mean 0.0029035747002983
field stddev 0.013573581837365
field sum 0.12775728681313
field sqrsum 0.0082933641532827
field min 1.4737696037048e-016
field max 0.08863888509979
attr source  symbolErrorRate
attr title  "Symbol error rate, histogram"
bin	-INF	0
bin	-0.044319442549895	0
bin	-0.038410183543242	0
bin	-0.032500924536589	0
bin	-0.026591665529937	0
bin	-0.020682406523284	0
bin	-0.014773147516631	0
bin	-0.0088638885099788	0
bin	-0.0029546295033262	40
bin	0.0029546295033265	1
bin	0.0088638885099791	1
bin	0.014773147516632	1
bin	0.020682406523284	0
bin	0.026591665529937	0
bin	0.03250092453659	0
bin	0.038410183543242	0
bin	0.044319442549895	0
bin	0.050228701556547	0
bin	0.0561379605632	0
bin	0.062047219569853	0
bin	0.067956478576505	0
bin	0.073865737583158	0
bin	0.079774996589811	0
bin	0.085684255596463	1
bin	0.091593514603116	0
bin	0.097502773609768	0
bin	0.10341203261642	0
bin	0.10932129162307	0
bin	0.11523055062973	0
bin	0.12113980963638	0
bin	0.12704906864303	0
bin	0.13295832764968	0
statistic car_host_40.hostC3.wlan[0].radio 	bitErrorRate:histogram
field count 44
field mean 0.0029035747002983
field stddev 0.013573581837365
field sum 0.12775728681313
field sqrsum 0.0082933641532827
field min 1.4737696037048e-016
field max 0.08863888509979
attr source  bitErrorRate
attr title  "Bit error rate, histogram"
bin	-INF	0
bin	-0.044319442549895	0
bin	-0.038410183543242	0
bin	-0.032500924536589	0
bin	-0.026591665529937	0
bin	-0.020682406523284	0
bin	-0.014773147516631	0
bin	-0.0088638885099788	0
bin	-0.0029546295033262	40
bin	0.0029546295033265	1
bin	0.0088638885099791	1
bin	0.014773147516632	1
bin	0.020682406523284	0
bin	0.026591665529937	0
bin	0.03250092453659	0
bin	0.038410183543242	0
bin	0.044319442549895	0
bin	0.050228701556547	0
bin	0.0561379605632	0
bin	0.062047219569853	0
bin	0.067956478576505	0
bin	0.073865737583158	0
bin	0.079774996589811	0
bin	0.085684255596463	1
bin	0.091593514603116	0
bin	0.097502773609768	0
bin	0.10341203261642	0
bin	0.10932129162307	0
bin	0.11523055062973	0
bin	0.12113980963638	0
bin	0.12704906864303	0
bin	0.13295832764968	0
statistic car_host_40.hostC3.wlan[0].radio 	packetErrorRate:histogram
field count 44
field mean 0.13801534886792
field stddev 0.30072737470205
field sum 6.0726753501886
field sqrsum 4.726911424511
field min 4.9737991503207e-014
field max 1
attr source  packetErrorRate
attr title  "Packet error rate, histogram"
bin	-INF	0
bin	-0.49999999999993	0
bin	-0.43333333333326	0
bin	-0.3666666666666	0
bin	-0.29999999999994	0
bin	-0.23333333333327	0
bin	-0.16666666666661	0
bin	-0.099999999999945	0
bin	-0.033333333333282	28
bin	0.033333333333381	8
bin	0.10000000000004	1
bin	0.16666666666671	0
bin	0.23333333333337	0
bin	0.30000000000003	0
bin	0.3666666666667	1
bin	0.43333333333336	1
bin	0.50000000000002	0
bin	0.56666666666669	0
bin	0.63333333333335	0
bin	0.70000000000001	1
bin	0.76666666666668	0
bin	0.83333333333334	1
bin	0.90000000000001	0
bin	0.96666666666667	3
bin	1.0333333333333	0
bin	1.1	0
bin	1.1666666666667	0
bin	1.2333333333333	0
bin	1.3	0
bin	1.3666666666666	0
bin	1.4333333333333	0
bin	1.5	0
statistic car_host_40.hostC3.wlan[0].radio 	minSNIR:histogram
field count 44
field mean 6.2506565332451
field stddev 4.3220584081433
field sum 275.02888746279
field sqrsum 2522.3592342367
field min 0.45507458170406
field max 16.709511951852
attr source  minSNIR
attr title  "Min SNIR, histogram"
bin	-INF	0
bin	-7.67214410337	0
bin	-6.5885149453601	0
bin	-5.5048857873503	0
bin	-4.4212566293404	0
bin	-3.3376274713305	0
bin	-2.2539983133206	0
bin	-1.1703691553108	0
bin	-0.086739997300878	1
bin	0.996889160709	4
bin	2.0805183187189	3
bin	3.1641474767288	8
bin	4.2477766347386	5
bin	5.3314057927485	11
bin	6.4150349507584	1
bin	7.4986641087683	3
bin	8.5822932667781	0
bin	9.665922424788	0
bin	10.749551582798	0
bin	11.833180740808	1
bin	12.916809898818	2
bin	14.000439056828	3
bin	15.084068214837	1
bin	16.167697372847	1
bin	17.251326530857	0
bin	18.334955688867	0
bin	19.418584846877	0
bin	20.502214004887	0
bin	21.585843162897	0
bin	22.669472320907	0
bin	23.753101478916	0
bin	24.836730636926	0
scalar car_host_40.hostC3.wlan[0].radio 	transmissionState:count 	16
attr interpolationmode  sample-hold
attr source  transmissionStateChanged
attr title  "Radio transmission state, count"
scalar car_host_40.hostC3.wlan[0].radio 	receptionState:count 	1865
attr interpolationmode  sample-hold
attr source  receptionStateChanged
attr title  "Radio reception state, count"
scalar car_host_40.hostC3.wlan[0].radio 	radioMode:count 	10
attr interpolationmode  sample-hold
attr source  radioModeChanged
attr title  "Radio mode, count"
scalar car_host_40.hostC4.lo0.lo 	droppedPkBitError:count 	0
attr interpolationmode  none
attr source  dropPkBitError
attr title  "packets dropped/bit error, count"
scalar car_host_40.hostC4.lo0.lo 	droppedPkBitError:sum(packetBytes) 	0
attr interpolationmode  none
attr source  dropPkBitError
attr title  "packets dropped/bit error, sum(packetBytes)"
scalar car_host_40.hostC4.lo0.lo 	rcvdPkFromHL:count 	0
attr interpolationmode  none
attr source  packetReceivedFromUpper
attr title  "packets received from higher layer, count"
scalar car_host_40.hostC4.lo0.lo 	rcvdPkFromHL:sum(packetBytes) 	0
attr interpolationmode  none
attr source  packetReceivedFromUpper
attr title  "packets received from higher layer, sum(packetBytes)"
scalar car_host_40.hostC4.lo0.lo 	passedUpPk:count 	0
attr interpolationmode  none
attr source  packetSentToUpper
attr title  "packets passed to higher layer, count"
scalar car_host_40.hostC4.lo0.lo 	passedUpPk:sum(packetBytes) 	0
attr interpolationmode  none
attr source  packetSentToUpper
attr title  "packets passed to higher layer, sum(packetBytes)"
scalar car_host_40.hostC4.wlan[0].mac 	numRetry 	0
scalar car_host_40.hostC4.wlan[0].mac 	numSentWithoutRetry 	0
scalar car_host_40.hostC4.wlan[0].mac 	numGivenUp 	0
scalar car_host_40.hostC4.wlan[0].mac 	numCollision 	22
scalar car_host_40.hostC4.wlan[0].mac 	numSent 	0
scalar car_host_40.hostC4.wlan[0].mac 	numReceived 	0
scalar car_host_40.hostC4.wlan[0].mac 	numSentBroadcast 	4
scalar car_host_40.hostC4.wlan[0].mac 	numReceivedBroadcast 	42
statistic car_host_40.hostC4.wlan[0].radio 	symbolErrorRate:histogram
field count 923
field mean 0.00046973767089872
field stddev 0.0077971606647034
field sum 0.43356787023952
field sqrsum 0.056257311867108
field min 1.0410809724929e-032
field max 0.22425333462874
attr source  symbolErrorRate
attr title  "Symbol error rate, histogram"
bin	-INF	0
bin	-0.11212666731437	0
bin	-0.097176445005786	0
bin	-0.082226222697204	0
bin	-0.067276000388621	0
bin	-0.052325778080039	0
bin	-0.037375555771456	0
bin	-0.022425333462874	0
bin	-0.0074751111542912	915
bin	0.0074751111542912	4
bin	0.022425333462874	2
bin	0.037375555771456	0
bin	0.052325778080039	1
bin	0.067276000388621	0
bin	0.082226222697204	0
bin	0.097176445005786	0
bin	0.11212666731437	0
bin	0.12707688962295	0
bin	0.14202711193153	0
bin	0.15697733424012	0
bin	0.1719275565487	0
bin	0.18687777885728	0
bin	0.20182800116586	0
bin	0.21677822347445	1
bin	0.23172844578303	0
bin	0.24667866809161	0
bin	0.26162889040019	0
bin	0.27657911270878	0
bin	0.29152933501736	0
bin	0.30647955732594	0
bin	0.32142977963452	0
bin	0.33638000194311	0
statistic car_host_40.hostC4.wlan[0].radio 	bitErrorRate:histogram
field count 923
field mean 0.00046973767089872
field stddev 0.0077971606647034
field sum 0.43356787023952
field sqrsum 0.056257311867108
field min 1.0410809724929e-032
field max 0.22425333462874
attr source  bitErrorRate
attr title  "Bit error rate, histogram"
bin	-INF	0
bin	-0.11212666731437	0
bin	-0.097176445005786	0
bin	-0.082226222697204	0
bin	-0.067276000388621	0
bin	-0.052325778080039	0
bin	-0.037375555771456	0
bin	-0.022425333462874	0
bin	-0.0074751111542912	915
bin	0.0074751111542912	4
bin	0.022425333462874	2
bin	0.037375555771456	0
bin	0.052325778080039	1
bin	0.067276000388621	0
bin	0.082226222697204	0
bin	0.097176445005786	0
bin	0.11212666731437	0
bin	0.12707688962295	0
bin	0.14202711193153	0
bin	0.15697733424012	0
bin	0.1719275565487	0
bin	0.18687777885728	0
bin	0.20182800116586	0
bin	0.21677822347445	1
bin	0.23172844578303	0
bin	0.24667866809161	0
bin	0.26162889040019	0
bin	0.27657911270878	0
bin	0.29152933501736	0
bin	0.30647955732594	0
bin	0.32142977963452	0
bin	0.33638000194311	0
statistic car_host_40.hostC4.wlan[0].radio 	packetErrorRate:histogram
field count 923
field mean 0.020014995999737
field stddev 0.12963867532454
field sum 18.473841307757
field sqrsum 15.865057480864
field min 0
field max 1
attr source  packetErrorRate
attr title  "Packet error rate, histogram"
bin	-INF	0
bin	-0.5	0
bin	-0.43333333333333	0
bin	-0.36666666666667	0
bin	-0.3	0
bin	-0.23333333333333	0
bin	-0.16666666666667	0
[...]
bin	-25.244868609733	0
bin	-21.311530422214	0
bin	-17.378192234694	0
bin	-13.444854047175	0
bin	-9.5115158596551	0
bin	-5.5781776721356	0
bin	-1.6448394846161	16
bin	2.2884987029035	13
bin	6.221836890423	1
bin	10.155175077943	7
bin	14.088513265462	5
bin	18.021851452982	0
bin	21.955189640501	2
bin	25.888527828021	0
bin	29.82186601554	0
bin	33.75520420306	0
bin	37.688542390579	0
bin	41.621880578099	0
bin	45.555218765618	3
bin	49.488556953138	0
bin	53.421895140657	0
bin	57.355233328177	3
bin	61.288571515697	0
bin	65.221909703216	0
bin	69.155247890736	0
bin	73.088586078255	0
bin	77.021924265775	0
bin	80.955262453294	0
bin	84.888600640814	0
bin	88.821938828333	0
scalar car_host_40.hoste6.wlan[0].radio 	transmissionState:count 	8
attr interpolationmode  sample-hold
attr source  transmissionStateChanged
attr title  "Radio transmission state, count"
scalar car_host_40.hoste6.wlan[0].radio 	receptionState:count 	1846
attr interpolationmode  sample-hold
attr source  receptionStateChanged
attr title  "Radio reception state, count"
scalar car_host_40.hoste6.wlan[0].radio 	radioMode:count 	6
attr interpolationmode  sample-hold
attr source  radioModeChanged
attr title  "Radio mode, count"
scalar car_host_40.hoste7.lo0.lo 	droppedPkBitError:count 	0
attr interpolationmode  none
attr source  dropPkBitError
attr title  "packets dropped/bit error, count"
scalar car_host_40.hoste7.lo0.lo 	droppedPkBitError:sum(packetBytes) 	0
attr interpolationmode  none
attr source  dropPkBitError
attr title  "packets dropped/bit error, sum(packetBytes)"
scalar car_host_40.hoste7.lo0.lo 	rcvdPkFromHL:count 	0
attr interpolationmode  none
attr source  packetReceivedFromUpper
attr title  "packets received from higher layer, count"
scalar car_host_40.hoste7.lo0.lo 	rcvdPkFromHL:sum(packetBytes) 	0
attr interpolationmode  none
attr source  packetReceivedFromUpper
attr title  "packets received from higher layer, sum(packetBytes)"
scalar car_host_40.hoste7.lo0.lo 	passedUpPk:count 	0
attr interpolationmode  none
attr source  packetSentToUpper
attr title  "packets passed to higher layer, count"
scalar car_host_40.hoste7.lo0.lo 	passedUpPk:sum(packetBytes) 	0
attr interpolationmode  none
attr source  packetSentToUpper
attr title  "packets passed to higher layer, sum(packetBytes)"
scalar car_host_40.hoste7.wlan[0].mac 	numRetry 	0
scalar car_host_40.hoste7.wlan[0].mac 	numSentWithoutRetry 	0
scalar car_host_40.hoste7.wlan[0].mac 	numGivenUp 	0
scalar car_host_40.hoste7.wlan[0].mac 	numCollision 	6
scalar car_host_40.hoste7.wlan[0].mac 	numSent 	1
scalar car_host_40.hoste7.wlan[0].mac 	numReceived 	1
scalar car_host_40.hoste7.wlan[0].mac 	numSentBroadcast 	2
scalar car_host_40.hoste7.wlan[0].mac 	numReceivedBroadcast 	24
statistic car_host_40.hoste7.wlan[0].radio 	symbolErrorRate:histogram
field count 32
field mean 0.0051946332136596
field stddev 0.019260701389198
field sum 0.16622826283711
field sqrsum 0.012363708013302
field min 6.9150642606748e-023
field max 0.10261834754577
attr source  symbolErrorRate
attr title  "Symbol error rate, histogram"
bin	-INF	0
bin	-0.051309173772887	0
bin	-0.044467950603168	0
bin	-0.03762672743345	0
bin	-0.030785504263732	0
bin	-0.023944281094014	0
bin	-0.017103057924296	0
bin	-0.010261834754577	0
bin	-0.0034206115848591	27
bin	0.0034206115848591	2
bin	0.010261834754577	1
bin	0.017103057924296	0
bin	0.023944281094014	0
bin	0.030785504263732	0
bin	0.03762672743345	1
bin	0.044467950603168	0
bin	0.051309173772887	0
bin	0.058150396942605	0
bin	0.064991620112323	0
bin	0.071832843282041	0
bin	0.07867406645176	0
bin	0.085515289621478	0
bin	0.092356512791196	0
bin	0.099197735960914	1
bin	0.10603895913063	0
bin	0.11288018230035	0
bin	0.11972140547007	0
bin	0.12656262863979	0
bin	0.13340385180951	0
bin	0.14024507497922	0
bin	0.14708629814894	0
bin	0.15392752131866	0
statistic car_host_40.hoste7.wlan[0].radio 	bitErrorRate:histogram
field count 32
field mean 0.0051946332136596
field stddev 0.019260701389198
field sum 0.16622826283711
field sqrsum 0.012363708013302
field min 6.9150642606748e-023
field max 0.10261834754577
attr source  bitErrorRate
attr title  "Bit error rate, histogram"
bin	-INF	0
bin	-0.051309173772887	0
bin	-0.044467950603168	0
bin	-0.03762672743345	0
bin	-0.030785504263732	0
bin	-0.023944281094014	0
bin	-0.017103057924296	0
bin	-0.010261834754577	0
bin	-0.0034206115848591	27
bin	0.0034206115848591	2
bin	0.010261834754577	1
bin	0.017103057924296	0
bin	0.023944281094014	0
bin	0.030785504263732	0
bin	0.03762672743345	1
bin	0.044467950603168	0
bin	0.051309173772887	0
bin	0.058150396942605	0
bin	0.064991620112323	0
bin	0.071832843282041	0
bin	0.07867406645176	0
bin	0.085515289621478	0
bin	0.092356512791196	0
bin	0.099197735960914	1
bin	0.10603895913063	0
bin	0.11288018230035	0
bin	0.11972140547007	0
bin	0.12656262863979	0
bin	0.13340385180951	0
bin	0.14024507497922	0
bin	0.14708629814894	0
bin	0.15392752131866	0
statistic car_host_40.hoste7.wlan[0].radio 	packetErrorRate:histogram
field count 32
field mean 0.17419552834887
field stddev 0.35012607109274
field sum 5.5742569071638
field sqrsum 4.7712468625198
field min 0
field max 1
attr source  packetErrorRate
attr title  "Packet error rate, histogram"
bin	-INF	0
bin	-0.5	0
bin	-0.43333333333333	0
bin	-0.36666666666667	0
bin	-0.3	0
bin	-0.23333333333333	0
bin	-0.16666666666667	0
bin	-0.1	0
bin	-0.033333333333333	23
bin	0.033333333333333	1
bin	0.1	1
bin	0.16666666666667	1
bin	0.23333333333333	0
bin	0.3	1
bin	0.36666666666667	0
bin	0.43333333333333	0
bin	0.5	0
bin	0.56666666666667	0
bin	0.63333333333333	0
bin	0.7	0
bin	0.76666666666667	0
bin	0.83333333333333	1
bin	0.9	1
bin	0.96666666666667	3
bin	1.0333333333333	0
bin	1.1	0
bin	1.1666666666667	0
bin	1.2333333333333	0
bin	1.3	0
bin	1.3666666666667	0
bin	1.4333333333333	0
bin	1.5	0
statistic car_host_40.hoste7.wlan[0].radio 	minSNIR:histogram
field count 32
field mean 7.3702675585514
field stddev 6.2463947778686
field sum 235.84856187365
field sqrsum 2947.8078836588
field min 0.4011780580072
field max 23.908181179064
attr source  minSNIR
attr title  "Min SNIR, histogram"
bin	-INF	0
bin	-11.352323502521	0
bin	-9.7851899611173	0
bin	-8.2180564197135	0
bin	-6.6509228783098	0
bin	-5.083789336906	0
bin	-3.5166557955022	0
bin	-1.9495222540985	0
bin	-0.38238871269468	2
bin	1.1847448287091	4
bin	2.7518783701129	7
bin	4.3190119115166	6
bin	5.8861454529204	1
bin	7.4532789943242	2
bin	9.0204125357279	0
bin	10.587546077132	6
bin	12.154679618535	0
bin	13.721813159939	1
bin	15.288946701343	0
bin	16.856080242747	0
bin	18.423213784151	0
bin	19.990347325554	1
bin	21.557480866958	0
bin	23.124614408362	2
bin	24.691747949766	0
bin	26.258881491169	0
bin	27.826015032573	0
bin	29.393148573977	0
bin	30.960282115381	0
bin	32.527415656785	0
bin	34.094549198188	0
bin	35.661682739592	0
scalar car_host_40.hoste7.wlan[0].radio 	transmissionState:count 	12
attr interpolationmode  sample-hold
attr source  transmissionStateChanged
attr title  "Radio transmission state, count"
scalar car_host_40.hoste7.wlan[0].radio 	receptionState:count 	104
attr interpolationmode  sample-hold
attr source  receptionStateChanged
attr title  "Radio reception state, count"
scalar car_host_40.hoste7.wlan[0].radio 	radioMode:count 	8
attr interpolationmode  sample-hold
attr source  radioModeChanged
attr title  "Radio mode, count"
scalar car_host_40.hoste8.lo0.lo 	droppedPkBitError:count 	0
attr interpolationmode  none
attr source  dropPkBitError
attr title  "packets dropped/bit error, count"
scalar car_host_40.hoste8.lo0.lo 	droppedPkBitError:sum(packetBytes) 	0
attr interpolationmode  none
attr source  dropPkBitError
attr title  "packets dropped/bit error, sum(packetBytes)"
scalar car_host_40.hoste8.lo0.lo 	rcvdPkFromHL:count 	0
attr interpolationmode  none
attr source  packetReceivedFromUpper
attr title  "packets received from higher layer, count"
scalar car_host_40.hoste8.lo0.lo 	rcvdPkFromHL:sum(packetBytes) 	0
attr interpolationmode  none
attr source  packetReceivedFromUpper
attr title  "packets received from higher layer, sum(packetBytes)"
scalar car_host_40.hoste8.lo0.lo 	passedUpPk:count 	0
attr interpolationmode  none
attr source  packetSentToUpper
attr title  "packets passed to higher layer, count"
scalar car_host_40.hoste8.lo0.lo 	passedUpPk:sum(packetBytes) 	0
attr interpolationmode  none
attr source  packetSentToUpper
attr title  "packets passed to higher layer, sum(packetBytes)"
scalar car_host_40.hoste8.wlan[0].mac 	numRetry 	0
scalar car_host_40.hoste8.wlan[0].mac 	numSentWithoutRetry 	0
scalar car_host_40.hoste8.wlan[0].mac 	numGivenUp 	0
scalar car_host_40.hoste8.wlan[0].mac 	numCollision 	7
scalar car_host_40.hoste8.wlan[0].mac 	numSent 	2
scalar car_host_40.hoste8.wlan[0].mac 	numReceived 	1
scalar car_host_40.hoste8.wlan[0].mac 	numSentBroadcast 	2
scalar car_host_40.hoste8.wlan[0].mac 	numReceivedBroadcast 	25
statistic car_host_40.hoste8.wlan[0].radio 	symbolErrorRate:histogram
field count 38
field mean 0.00058872477222033
field stddev 0.0013954790835635
field sum 0.022371541344372
field sqrsum 8.522306987072e-005
field min 1.1820766382854e-088
field max 0.0064510576998316
attr source  symbolErrorRate
attr title  "Symbol error rate, histogram"
bin	-INF	0
bin	-0.0032255288499158	0
bin	-0.0027954583365937	0
bin	-0.0023653878232716	0
bin	-0.0019353173099495	0
bin	-0.0015052467966274	0
bin	-0.0010751762833053	0
bin	-0.00064510576998316	0
bin	-0.00021503525666105	30
bin	0.00021503525666105	1
bin	0.00064510576998316	0
bin	0.0010751762833053	2
bin	0.0015052467966274	0
bin	0.0019353173099495	0
bin	0.0023653878232716	1
bin	0.0027954583365937	2
bin	0.0032255288499158	0
bin	0.0036555993632379	0
bin	0.00408566987656	1
bin	0.0045157403898821	0
bin	0.0049458109032042	0
bin	0.0053758814165263	0
bin	0.0058059519298484	0
bin	0.0062360224431705	1
bin	0.0066660929564926	0
bin	0.0070961634698147	0
bin	0.0075262339831368	0
bin	0.007956304496459	0
bin	0.0083863750097811	0
bin	0.0088164455231032	0
bin	0.0092465160364253	0
bin	0.0096765865497474	0
statistic car_host_40.hoste8.wlan[0].radio 	bitErrorRate:histogram
field count 38
field mean 0.00058872477222033
field stddev 0.0013954790835635
field sum 0.022371541344372
field sqrsum 8.522306987072e-005
field min 1.1820766382854e-088
field max 0.0064510576998316
attr source  bitErrorRate
attr title  "Bit error rate, histogram"
bin	-INF	0
bin	-0.0032255288499158	0
bin	-0.0027954583365937	0
bin	-0.0023653878232716	0
bin	-0.0019353173099495	0
bin	-0.0015052467966274	0
bin	-0.0010751762833053	0
bin	-0.00064510576998316	0
bin	-0.00021503525666105	30
bin	0.00021503525666105	1
bin	0.00064510576998316	0
bin	0.0010751762833053	2
bin	0.0015052467966274	0
bin	0.0019353173099495	0
bin	0.0023653878232716	1
bin	0.0027954583365937	2
bin	0.0032255288499158	0
bin	0.0036555993632379	0
bin	0.00408566987656	1
bin	0.0045157403898821	0
bin	0.0049458109032042	0
bin	0.0053758814165263	0
bin	0.0058059519298484	0
bin	0.0062360224431705	1
bin	0.0066660929564926	0
bin	0.0070961634698147	0
bin	0.0075262339831368	0
bin	0.007956304496459	0
bin	0.0083863750097811	0
bin	0.0088164455231032	0
bin	0.0092465160364253	0
bin	0.0096765865497474	0
statistic car_host_40.hoste8.wlan[0].radio 	packetErrorRate:histogram
field count 38
field mean 0.14081423394783
field stddev 0.28542544134142
field sum 5.3509408900176
field sqrsum 3.7677928972309
field min 0
field max 0.95524440144168
attr source  packetErrorRate
attr title  "Packet error rate, histogram"
bin	-INF	0
bin	-0.47762220072084	0
bin	-0.41393924062473	0
bin	-0.35025628052862	0
bin	-0.2865733204325	0
bin	-0.22289036033639	0
bin	-0.15920740024028	0
bin	-0.095524440144168	0
bin	-0.031841480048056	29
bin	0.031841480048056	1
bin	0.095524440144168	0
bin	0.15920740024028	0
bin	0.22289036033639	1
bin	0.2865733204325	0
bin	0.35025628052861	1
bin	0.41393924062473	0
bin	0.47762220072084	1
bin	0.54130516081695	0
bin	0.60498812091306	0
bin	0.66867108100917	1
bin	0.73235404110529	2
bin	0.7960370012014	0
bin	0.85971996129751	1
bin	0.92340292139362	1
bin	0.98708588148973	0
bin	1.0507688415858	0
bin	1.114451801682	0
bin	1.1781347617781	0
bin	1.2418177218742	0
bin	1.3055006819703	0
bin	1.3691836420664	0
bin	1.4328666021625	0
statistic car_host_40.hoste8.wlan[0].radio 	minSNIR:histogram
field count 38
field mean 11.523239362456
field stddev 17.616305868528
field sum 437.88309577333
field sqrsum 16528.19832615
field min 1.5456205552107
field max 99.273344263718
attr source  minSNIR
attr title  "Min SNIR, histogram"
bin	-INF	0
bin	-47.318241299043	0
bin	-40.803059718476	0
bin	-34.287878137909	0
bin	-27.772696557342	0
bin	-21.257514976774	0
bin	-14.742333396207	0
bin	-8.2271518156401	0
bin	-1.7119702350729	18
bin	4.8032113454942	9
bin	11.318392926061	6
bin	17.833574506629	0
bin	24.348756087196	0
bin	30.863937667763	2
bin	37.37911924833	2
bin	43.894300828897	0
bin	50.409482409464	0
bin	56.924663990031	0
bin	63.439845570599	0
bin	69.955027151166	0
bin	76.470208731733	0
bin	82.9853903123	0
bin	89.500571892867	0
bin	96.015753473434	1
bin	102.530935054	0
bin	109.04611663457	0
bin	115.56129821514	0
bin	122.0764797957	0
bin	128.59166137627	0
bin	135.10684295684	0
bin	141.6220245374	0
bin	148.13720611797	0
scalar car_host_40.hoste8.wlan[0].radio 	transmissionState:count 	16
attr interpolationmode  sample-hold
attr source  transmissionStateChanged
attr title  "Radio transmission state, count"
scalar car_host_40.hoste8.wlan[0].radio 	receptionState:count 	110
attr interpolationmode  sample-hold
attr source  receptionStateChanged
attr title  "Radio reception state, count"
scalar car_host_40.hoste8.wlan[0].radio 	radioMode:count 	10
attr interpolationmode  sample-hold
attr source  radioModeChanged
attr title  "Radio mode, count"
scalar car_host_40.hoste9.lo0.lo 	droppedPkBitError:count 	0
attr interpolationmode  none
attr source  dropPkBitError
attr title  "packets dropped/bit error, count"
scalar car_host_40.hoste9.lo0.lo 	droppedPkBitError:sum(packetBytes) 	0
attr interpolationmode  none
attr source  dropPkBitError
attr title  "packets dropped/bit error, sum(packetBytes)"
scalar car_host_40.hoste9.lo0.lo 	rcvdPkFromHL:count 	0
attr interpolationmode  none
attr source  packetReceivedFromUpper
attr title  "packets received from higher layer, count"
scalar car_host_40.hoste9.lo0.lo 	rcvdPkFromHL:sum(packetBytes) 	0
attr interpolationmode  none
attr source  packetReceivedFromUpper
attr title  "packets received from higher layer, sum(packetBytes)"
scalar car_host_40.hoste9.lo0.lo 	passedUpPk:count 	0
attr interpolationmode  none
attr source  packetSentToUpper
attr title  "packets passed to higher layer, count"
scalar car_host_40.hoste9.lo0.lo 	passedUpPk:sum(packetBytes) 	0
attr interpolationmode  none
attr source  packetSentToUpper
attr title  "packets passed to higher layer, sum(packetBytes)"
scalar car_host_40.hoste9.wlan[0].mac 	numRetry 	0
scalar car_host_40.hoste9.wlan[0].mac 	numSentWithoutRetry 	0
scalar car_host_40.hoste9.wlan[0].mac 	numGivenUp 	0
scalar car_host_40.hoste9.wlan[0].mac 	numCollision 	7
scalar car_host_40.hoste9.wlan[0].mac 	numSent 	0
scalar car_host_40.hoste9.wlan[0].mac 	numReceived 	0
scalar car_host_40.hoste9.wlan[0].mac 	numSentBroadcast 	3
scalar car_host_40.hoste9.wlan[0].mac 	numReceivedBroadcast 	27
statistic car_host_40.hoste9.wlan[0].radio 	symbolErrorRate:histogram
field count 43
field mean 0.00042894839022236
field stddev 0.0012689040077093
field sum 0.018444780779562
field sqrsum 7.553678901619e-005
field min 7.0986460096439e-043
field max 0.007432130988236
attr source  symbolErrorRate
attr title  "Symbol error rate, histogram"
bin	-INF	0
bin	-0.003716065494118	0
bin	-0.0032205900949023	0
bin	-0.0027251146956865	0
bin	-0.0022296392964708	0
bin	-0.0017341638972551	0
bin	-0.0012386884980393	0
bin	-0.0007432130988236	0
bin	-0.00024773769960787	34
bin	0.00024773769960787	2
bin	0.0007432130988236	2
bin	0.0012386884980393	2
bin	0.0017341638972551	1
bin	0.0022296392964708	0
bin	0.0027251146956865	1
bin	0.0032205900949023	0
bin	0.003716065494118	0
bin	0.0042115408933337	0
bin	0.0047070162925495	0
bin	0.0052024916917652	0
bin	0.0056979670909809	0
bin	0.0061934424901967	0
bin	0.0066889178894124	0
bin	0.0071843932886282	1
bin	0.0076798686878439	0
bin	0.0081753440870596	0
bin	0.0086708194862754	0
bin	0.0091662948854911	0
bin	0.0096617702847068	0
bin	0.010157245683923	0
bin	0.010652721083138	0
bin	0.011148196482354	0
statistic car_host_40.hoste9.wlan[0].radio 	bitErrorRate:histogram
field count 43
field mean 0.00042894839022236
field stddev 0.0012689040077093
field sum 0.018444780779562
field sqrsum 7.553678901619e-005
field min 7.0986460096439e-043
field max 0.007432130988236
attr source  bitErrorRate
attr title  "Bit error rate, histogram"
bin	-INF	0
bin	-0.003716065494118	0
bin	-0.0032205900949023	0
bin	-0.0027251146956865	0
bin	-0.0022296392964708	0
bin	-0.0017341638972551	0
bin	-0.0012386884980393	0
bin	-0.0007432130988236	0
bin	-0.00024773769960787	34
bin	0.00024773769960787	2
bin	0.0007432130988236	2
bin	0.0012386884980393	2
bin	0.0017341638972551	1
bin	0.0022296392964708	0
bin	0.0027251146956865	1
bin	0.0032205900949023	0
bin	0.003716065494118	0
bin	0.0042115408933337	0
bin	0.0047070162925495	0
bin	0.0052024916917652	0
bin	0.0056979670909809	0
bin	0.0061934424901967	0
bin	0.0066889178894124	0
bin	0.0071843932886282	1
bin	0.0076798686878439	0
bin	0.0081753440870596	0
bin	0.0086708194862754	0
bin	0.0091662948854911	0
bin	0.0096617702847068	0
bin	0.010157245683923	0
bin	0.010652721083138	0
bin	0.011148196482354	0
statistic car_host_40.hoste9.wlan[0].radio 	packetErrorRate:histogram
field count 43
field mean 0.10629940315824
field stddev 0.23417224620847
field sum 4.5708743358043
field sqrsum 2.7890201313688
field min 0
field max 0.97214508101
attr source  packetErrorRate
attr title  "Packet error rate, histogram"
bin	-INF	0
bin	-0.486072540505	0
bin	-0.42126286843767	0
bin	-0.35645319637033	0
bin	-0.291643524303	0
bin	-0.22683385223567	0
bin	-0.16202418016833	0
bin	-0.097214508101	0
bin	-0.032404836033667	34
bin	0.032404836033667	0
bin	0.097214508101	0
bin	0.16202418016833	0
bin	0.22683385223567	2
bin	0.291643524303	2
bin	0.35645319637033	0
bin	0.42126286843767	0
bin	0.486072540505	1
bin	0.55088221257233	2
bin	0.61569188463967	0
bin	0.680501556707	0
bin	0.74531122877433	1
bin	0.81012090084167	0
bin	0.874930572909	0
bin	0.93974024497633	1
bin	1.0045499170437	0
bin	1.069359589111	0
bin	1.1341692611783	0
bin	1.1989789332457	0
bin	1.263788605313	0
bin	1.3285982773803	0
bin	1.3934079494477	0
bin	1.458217621515	0
statistic car_host_40.hoste9.wlan[0].radio 	minSNIR:histogram
field count 43
field mean 10.005866947168
field stddev 10.098853094041
field sum 430.25227872821
field sqrsum 8588.4940749011
field min 1.4831213815643
field max 46.755711862965
attr source  minSNIR
attr title  "Min SNIR, histogram"
bin	-INF	0
bin	-21.153173859136	0
bin	-18.135001160376	0
bin	-15.116828461616	0
bin	-12.098655762856	0
bin	-9.0804830640958	0
bin	-6.0623103653358	0
bin	-3.0441376665757	0
bin	-0.025964967815682	9
bin	2.9922077309444	12
bin	6.0103804297044	7
bin	9.0285531284645	4
bin	12.046725827225	2
bin	15.064898525985	3
bin	18.083071224745	3
bin	21.101243923505	1
bin	24.119416622265	0
bin	27.137589321025	0
bin	30.155762019785	0
bin	33.173934718545	0
bin	36.192107417305	0
bin	39.210280116065	0
bin	42.228452814825	0
bin	45.246625513585	2
bin	48.264798212345	0
bin	51.282970911105	0
bin	54.301143609865	0
bin	57.319316308625	0
bin	60.337489007385	0
bin	63.355661706145	0
bin	66.373834404906	0
bin	69.392007103666	0
scalar car_host_40.hoste9.wlan[0].radio 	transmissionState:count 	12
attr interpolationmode  sample-hold
attr source  transmissionStateChanged
attr title  "Radio transmission state, count"
scalar car_host_40.hoste9.wlan[0].radio 	receptionState:count 	118
attr interpolationmode  sample-hold
attr source  receptionStateChanged
attr title  "Radio reception state, count"
scalar car_host_40.hoste9.wlan[0].radio 	radioMode:count 	8
attr interpolationmode  sample-hold
attr source  radioModeChanged
attr title  "Radio mode, count"
