version 2
run Host30_10pps-0-20161107-11:47:08-9780
attr configname Host30_10pps
attr datetime 20161107-11:47:08
attr experiment Host30_10pps
attr inifile omnetpp_30.ini
attr iterationvars ""
attr iterationvars2 $repetition=0
attr measurement ""
attr network arb_png.car_host_30
attr processid 9780
attr repetition 0
attr replication #0
attr resultdir results
attr runnumber 0
attr seedset 0
param **.aodv.activeRouteTimeout 2s
param *.configurator.addStaticRoutes false
param *.configurator.config "xml(\"<config><interface hosts='**' address='10.0.0.x' netmask='255.255.255.0'/><autoroute metric='errorRate'/></config>\")"
param *.configurator.optimizeRoutes true
param *.host*.**.bitrate 1Mbps
param *.host*.networkLayer.arpType "\"GlobalARP\""
param *.host*.routingTable.netmaskRoutes "\"\""
param *.host*.wlan[0].mac.maxQueueSize 15
param *.host*.wlan[0].mac.useAck false
param *.host*.wlan[0].macType "\"CsmaCaMac\""
param *.host*.wlan[0].radio.bandwidth 2MHz
param *.host*.wlan[0].radio.carrierFrequency 2GHz
param *.host*.wlan[0].radio.displayCommunicationRange true
param *.host*.wlan[0].radio.displayInterferenceRange true
param *.host*.wlan[0].radio.receiver.energyDetection -85dBm
param *.host*.wlan[0].radio.receiver.ignoreInterference false
param *.host*.wlan[0].radio.receiver.sensitivity -85dBm
param *.host*.wlan[0].radio.receiver.snirThreshold 4dB
param *.host*.wlan[0].radio.transmitter.communicationRange 200m
param *.host*.wlan[0].radio.transmitter.headerBitLength 0b
param *.host*.wlan[0].radio.transmitter.power 1.4mW
param *.host*.wlan[0].radio.transmitter.preambleDuration 10us
param *.host*.wlan[0].radioType "\"APSKScalarRadio\""
param *.host*.wlan[0].typename "\"WirelessNic\""
param *.hostA.numUdpApps 1
param *.hostA.udpApp[0].destAddresses "\"hostD\""
param *.hostA.udpApp[0].destPort 5000
param *.hostA.udpApp[0].messageLength 1000B
param *.hostA.udpApp[0].packetName "\"Data\""
param *.hostA.udpApp[0].sendInterval 100ms
param *.hostA.udpApp[0].typename "\"UDPBasicApp\""
param *.hostD.numUdpApps 1
param *.hostD.udpApp[0].localPort 5000
param *.hostD.udpApp[0].typename "\"UDPSink\""
param *.hostType "\"AODVRouter\""
param *.mediumType "\"APSKScalarRadioMedium\""
param *.radioMedium.backgroundNoise.power -90dBm
param *.radioMedium.mediumLimitCache.carrierFrequency 2GHz
param *.visualizer.dataLinkVisualizer.packetNameFilter "\"AODV*\""
param *.visualizer.mediumVisualizer.signalPropagationUpdateInterval 100ns
param *.visualizer.mobilityVisualizer.displayMovementTrail true
param *.visualizer.networkRouteVisualizer.packetNameFilter "\"UDPData*\""
param *.visualizer.sceneVisualizer.descriptionFigure "\"title\""

vector 12  car_host_30.hostA.wlan[0].radio  radioMode:vector  ETV
attr interpolationmode  sample-hold
attr source  radioModeChanged
attr title  "Radio mode, vector"
vector 26  car_host_30.hostD.wlan[0].radio  radioMode:vector  ETV
attr interpolationmode  sample-hold
attr source  radioModeChanged
attr title  "Radio mode, vector"
vector 32  car_host_30.hostB.wlan[0].radio  radioMode:vector  ETV
attr interpolationmode  sample-hold
attr source  radioModeChanged
attr title  "Radio mode, vector"
vector 38  car_host_30.hostC.wlan[0].radio  radioMode:vector  ETV
attr interpolationmode  sample-hold
attr source  radioModeChanged
attr title  "Radio mode, vector"
vector 44  car_host_30.hostB1.wlan[0].radio  radioMode:vector  ETV
attr interpolationmode  sample-hold
attr source  radioModeChanged
attr title  "Radio mode, vector"
vector 50  car_host_30.hostB2.wlan[0].radio  radioMode:vector  ETV
attr interpolationmode  sample-hold
attr source  radioModeChanged
attr title  "Radio mode, vector"
vector 56  car_host_30.hostB3.wlan[0].radio  radioMode:vector  ETV
attr interpolationmode  sample-hold
attr source  radioModeChanged
attr title  "Radio mode, vector"
vector 62  car_host_30.hostB4.wlan[0].radio  radioMode:vector  ETV
attr interpolationmode  sample-hold
attr source  radioModeChanged
attr title  "Radio mode, vector"
vector 68  car_host_30.hostC1.wlan[0].radio  radioMode:vector  ETV
attr interpolationmode  sample-hold
attr source  radioModeChanged
attr title  "Radio mode, vector"
vector 74  car_host_30.hostC2.wlan[0].radio  radioMode:vector  ETV
attr interpolationmode  sample-hold
attr source  radioModeChanged
attr title  "Radio mode, vector"
vector 80  car_host_30.hostC3.wlan[0].radio  radioMode:vector  ETV
attr interpolationmode  sample-hold
attr source  radioModeChanged
attr title  "Radio mode, vector"
vector 86  car_host_30.hostC4.wlan[0].radio  radioMode:vector  ETV
attr interpolationmode  sample-hold
attr source  radioModeChanged
attr title  "Radio mode, vector"
vector 92  car_host_30.hostC5.wlan[0].radio  radioMode:vector  ETV
attr interpolationmode  sample-hold
attr source  radioModeChanged
attr title  "Radio mode, vector"
vector 98  car_host_30.hostC6.wlan[0].radio  radioMode:vector  ETV
attr interpolationmode  sample-hold
attr source  radioModeChanged
attr title  "Radio mode, vector"
vector 104  car_host_30.hostB5.wlan[0].radio  radioMode:vector  ETV
attr interpolationmode  sample-hold
attr source  radioModeChanged
attr title  "Radio mode, vector"
vector 110  car_host_30.hostC7.wlan[0].radio  radioMode:vector  ETV
attr interpolationmode  sample-hold
attr source  radioModeChanged
attr title  "Radio mode, vector"
vector 116  car_host_30.hostB6.wlan[0].radio  radioMode:vector  ETV
attr interpolationmode  sample-hold
attr source  radioModeChanged
attr title  "Radio mode, vector"
vector 122  car_host_30.hostB7.wlan[0].radio  radioMode:vector  ETV
attr interpolationmode  sample-hold
attr source  radioModeChanged
attr title  "Radio mode, vector"
vector 128  car_host_30.hostC8.wlan[0].radio  radioMode:vector  ETV
attr interpolationmode  sample-hold
attr source  radioModeChanged
attr title  "Radio mode, vector"
vector 134  car_host_30.hostC9.wlan[0].radio  radioMode:vector  ETV
attr interpolationmode  sample-hold
attr source  radioModeChanged
attr title  "Radio mode, vector"
vector 140  car_host_30.hostB8.wlan[0].radio  radioMode:vector  ETV
attr interpolationmode  sample-hold
attr source  radioModeChanged
attr title  "Radio mode, vector"
vector 146  car_host_30.hostB9.wlan[0].radio  radioMode:vector  ETV
attr interpolationmode  sample-hold
attr source  radioModeChanged
attr title  "Radio mode, vector"
vector 152  car_host_30.hostC10.wlan[0].radio  radioMode:vector  ETV
attr interpolationmode  sample-hold
attr source  radioModeChanged
attr title  "Radio mode, vector"
vector 158  car_host_30.hostC11.wlan[0].radio  radioMode:vector  ETV
attr interpolationmode  sample-hold
attr source  radioModeChanged
attr title  "Radio mode, vector"
vector 164  car_host_30.hostB10.wlan[0].radio  radioMode:vector  ETV
attr interpolationmode  sample-hold
attr source  radioModeChanged
attr title  "Radio mode, vector"
vector 170  car_host_30.hostC12.wlan[0].radio  radioMode:vector  ETV
attr interpolationmode  sample-hold
attr source  radioModeChanged
attr title  "Radio mode, vector"
vector 176  car_host_30.hostB11.wlan[0].radio  radioMode:vector  ETV
attr interpolationmode  sample-hold
attr source  radioModeChanged
attr title  "Radio mode, vector"
vector 182  car_host_30.hostB12.wlan[0].radio  radioMode:vector  ETV
attr interpolationmode  sample-hold
attr source  radioModeChanged
attr title  "Radio mode, vector"
vector 188  car_host_30.hostC13.wlan[0].radio  radioMode:vector  ETV
attr interpolationmode  sample-hold
attr source  radioModeChanged
attr title  "Radio mode, vector"
vector 194  car_host_30.hostC14.wlan[0].radio  radioMode:vector  ETV
attr interpolationmode  sample-hold
attr source  radioModeChanged
attr title  "Radio mode, vector"
vector 200  car_host_30.hostB13.wlan[0].radio  radioMode:vector  ETV
attr interpolationmode  sample-hold
attr source  radioModeChanged
attr title  "Radio mode, vector"
vector 206  car_host_30.hostB14.wlan[0].radio  radioMode:vector  ETV
attr interpolationmode  sample-hold
attr source  radioModeChanged
attr title  "Radio mode, vector"
vector 13  car_host_30.hostA.wlan[0].radio  receptionState:vector  ETV
attr interpolationmode  sample-hold
attr source  receptionStateChanged
attr title  "Radio reception state, vector"
vector 27  car_host_30.hostD.wlan[0].radio  receptionState:vector  ETV
attr interpolationmode  sample-hold
attr source  receptionStateChanged
attr title  "Radio reception state, vector"
vector 33  car_host_30.hostB.wlan[0].radio  receptionState:vector  ETV
attr interpolationmode  sample-hold
attr source  receptionStateChanged
attr title  "Radio reception state, vector"
vector 39  car_host_30.hostC.wlan[0].radio  receptionState:vector  ETV
attr interpolationmode  sample-hold
attr source  receptionStateChanged
attr title  "Radio reception state, vector"
vector 45  car_host_30.hostB1.wlan[0].radio  receptionState:vector  ETV
attr interpolationmode  sample-hold
attr source  receptionStateChanged
attr title  "Radio reception state, vector"
vector 51  car_host_30.hostB2.wlan[0].radio  receptionState:vector  ETV
attr interpolationmode  sample-hold
attr source  receptionStateChanged
attr title  "Radio reception state, vector"
vector 57  car_host_30.hostB3.wlan[0].radio  receptionState:vector  ETV
attr interpolationmode  sample-hold
attr source  receptionStateChanged
attr title  "Radio reception state, vector"
vector 63  car_host_30.hostB4.wlan[0].radio  receptionState:vector  ETV
attr interpolationmode  sample-hold
attr source  receptionStateChanged
attr title  "Radio reception state, vector"
vector 69  car_host_30.hostC1.wlan[0].radio  receptionState:vector  ETV
attr interpolationmode  sample-hold
attr source  receptionStateChanged
attr title  "Radio reception state, vector"
vector 75  car_host_30.hostC2.wlan[0].radio  receptionState:vector  ETV
attr interpolationmode  sample-hold
attr source  receptionStateChanged
attr title  "Radio reception state, vector"
vector 81  car_host_30.hostC3.wlan[0].radio  receptionState:vector  ETV
attr interpolationmode  sample-hold
attr source  receptionStateChanged
attr title  "Radio reception state, vector"
vector 87  car_host_30.hostC4.wlan[0].radio  receptionState:vector  ETV
attr interpolationmode  sample-hold
attr source  receptionStateChanged
attr title  "Radio reception state, vector"
vector 93  car_host_30.hostC5.wlan[0].radio  receptionState:vector  ETV
attr interpolationmode  sample-hold
attr source  receptionStateChanged
attr title  "Radio reception state, vector"
vector 99  car_host_30.hostC6.wlan[0].radio  receptionState:vector  ETV
attr interpolationmode  sample-hold
attr source  receptionStateChanged
attr title  "Radio reception state, vector"
vector 105  car_host_30.hostB5.wlan[0].radio  receptionState:vector  ETV
attr interpolationmode  sample-hold
attr source  receptionStateChanged
attr title  "Radio reception state, vector"
vector 111  car_host_30.hostC7.wlan[0].radio  receptionState:vector  ETV
attr interpolationmode  sample-hold
attr source  receptionStateChanged
attr title  "Radio reception state, vector"
vector 117  car_host_30.hostB6.wlan[0].radio  receptionState:vector  ETV
attr interpolationmode  sample-hold
attr source  receptionStateChanged
attr title  "Radio reception state, vector"
vector 123  car_host_30.hostB7.wlan[0].radio  receptionState:vector  ETV
attr interpolationmode  sample-hold
attr source  receptionStateChanged
attr title  "Radio reception state, vector"
vector 129  car_host_30.hostC8.wlan[0].radio  receptionState:vector  ETV
attr interpolationmode  sample-hold
attr source  receptionStateChanged
attr title  "Radio reception state, vector"
vector 135  car_host_30.hostC9.wlan[0].radio  receptionState:vector  ETV
attr interpolationmode  sample-hold
attr source  receptionStateChanged
attr title  "Radio reception state, vector"
vector 141  car_host_30.hostB8.wlan[0].radio  receptionState:vector  ETV
attr interpolationmode  sample-hold
attr source  receptionStateChanged
attr title  "Radio reception state, vector"
vector 147  car_host_30.hostB9.wlan[0].radio  receptionState:vector  ETV
attr interpolationmode  sample-hold
attr source  receptionStateChanged
attr title  "Radio reception state, vector"
vector 153  car_host_30.hostC10.wlan[0].radio  receptionState:vector  ETV
attr interpolationmode  sample-hold
attr source  receptionStateChanged
attr title  "Radio reception state, vector"
vector 159  car_host_30.hostC11.wlan[0].radio  receptionState:vector  ETV
attr interpolationmode  sample-hold
attr source  receptionStateChanged
attr title  "Radio reception state, vector"
vector 165  car_host_30.hostB10.wlan[0].radio  receptionState:vector  ETV
attr interpolationmode  sample-hold
attr source  receptionStateChanged
attr title  "Radio reception state, vector"
vector 171  car_host_30.hostC12.wlan[0].radio  receptionState:vector  ETV
attr interpolationmode  sample-hold
attr source  receptionStateChanged
attr title  "Radio reception state, vector"
vector 177  car_host_30.hostB11.wlan[0].radio  receptionState:vector  ETV
attr interpolationmode  sample-hold
attr source  receptionStateChanged
attr title  "Radio reception state, vector"
vector 183  car_host_30.hostB12.wlan[0].radio  receptionState:vector  ETV
attr interpolationmode  sample-hold
attr source  receptionStateChanged
attr title  "Radio reception state, vector"
vector 189  car_host_30.hostC13.wlan[0].radio  receptionState:vector  ETV
attr interpolationmode  sample-hold
attr source  receptionStateChanged
attr title  "Radio reception state, vector"
vector 195  car_host_30.hostC14.wlan[0].radio  receptionState:vector  ETV
attr interpolationmode  sample-hold
attr source  receptionStateChanged
attr title  "Radio reception state, vector"
vector 201  car_host_30.hostB13.wlan[0].radio  receptionState:vector  ETV
attr interpolationmode  sample-hold
attr source  receptionStateChanged
attr title  "Radio reception state, vector"
vector 207  car_host_30.hostB14.wlan[0].radio  receptionState:vector  ETV
attr interpolationmode  sample-hold
attr source  receptionStateChanged
attr title  "Radio reception state, vector"
vector 1  car_host_30.hostA.udpApp[0]  sentPk:vector(packetBytes)  ETV
attr interpolationmode  none
attr source  sentPk
attr title  "packets sent, vector(packetBytes)"
vector 4  car_host_30.hostA.udp  sentPk:vector(packetBytes)  ETV
attr interpolationmode  none
attr source  sentPk
attr title  "packets sent, vector(packetBytes)"
vector 14  car_host_30.hostA.wlan[0].radio  transmissionState:vector  ETV
attr interpolationmode  sample-hold
attr source  transmissionStateChanged
attr title  "Radio transmission state, vector"
vector 64  car_host_30.hostB4.wlan[0].radio  transmissionState:vector  ETV
attr interpolationmode  sample-hold
attr source  transmissionStateChanged
attr title  "Radio transmission state, vector"
vector 202  car_host_30.hostB13.wlan[0].radio  transmissionState:vector  ETV
attr interpolationmode  sample-hold
attr source  transmissionStateChanged
attr title  "Radio transmission state, vector"
vector 148  car_host_30.hostB9.wlan[0].radio  transmissionState:vector  ETV
attr interpolationmode  sample-hold
attr source  transmissionStateChanged
attr title  "Radio transmission state, vector"
vector 124  car_host_30.hostB7.wlan[0].radio  transmissionState:vector  ETV
attr interpolationmode  sample-hold
attr source  transmissionStateChanged
attr title  "Radio transmission state, vector"
vector 46  car_host_30.hostB1.wlan[0].radio  transmissionState:vector  ETV
attr interpolationmode  sample-hold
attr source  transmissionStateChanged
attr title  "Radio transmission state, vector"
vector 184  car_host_30.hostB12.wlan[0].radio  transmissionState:vector  ETV
attr interpolationmode  sample-hold
attr source  transmissionStateChanged
attr title  "Radio transmission state, vector"
vector 52  car_host_30.hostB2.wlan[0].radio  transmissionState:vector  ETV
attr interpolationmode  sample-hold
attr source  transmissionStateChanged
attr title  "Radio transmission state, vector"
vector 142  car_host_30.hostB8.wlan[0].radio  transmissionState:vector  ETV
attr interpolationmode  sample-hold
attr source  transmissionStateChanged
attr title  "Radio transmission state, vector"
vector 178  car_host_30.hostB11.wlan[0].radio  transmissionState:vector  ETV
attr interpolationmode  sample-hold
attr source  transmissionStateChanged
attr title  "Radio transmission state, vector"
vector 208  car_host_30.hostB14.wlan[0].radio  transmissionState:vector  ETV
attr interpolationmode  sample-hold
attr source  transmissionStateChanged
attr title  "Radio transmission state, vector"
vector 106  car_host_30.hostB5.wlan[0].radio  transmissionState:vector  ETV
attr interpolationmode  sample-hold
attr source  transmissionStateChanged
attr title  "Radio transmission state, vector"
vector 58  car_host_30.hostB3.wlan[0].radio  transmissionState:vector  ETV
attr interpolationmode  sample-hold
attr source  transmissionStateChanged
attr title  "Radio transmission state, vector"
vector 118  car_host_30.hostB6.wlan[0].radio  transmissionState:vector  ETV
attr interpolationmode  sample-hold
attr source  transmissionStateChanged
attr title  "Radio transmission state, vector"
vector 76  car_host_30.hostC2.wlan[0].radio  transmissionState:vector  ETV
attr interpolationmode  sample-hold
attr source  transmissionStateChanged
attr title  "Radio transmission state, vector"
vector 136  car_host_30.hostC9.wlan[0].radio  transmissionState:vector  ETV
attr interpolationmode  sample-hold
attr source  transmissionStateChanged
attr title  "Radio transmission state, vector"
vector 112  car_host_30.hostC7.wlan[0].radio  transmissionState:vector  ETV
attr interpolationmode  sample-hold
attr source  transmissionStateChanged
attr title  "Radio transmission state, vector"
vector 166  car_host_30.hostB10.wlan[0].radio  transmissionState:vector  ETV
attr interpolationmode  sample-hold
attr source  transmissionStateChanged
attr title  "Radio transmission state, vector"
vector 130  car_host_30.hostC8.wlan[0].radio  transmissionState:vector  ETV
attr interpolationmode  sample-hold
attr source  transmissionStateChanged
attr title  "Radio transmission state, vector"
vector 34  car_host_30.hostB.wlan[0].radio  transmissionState:vector  ETV
attr interpolationmode  sample-hold
attr source  transmissionStateChanged
attr title  "Radio transmission state, vector"
vector 172  car_host_30.hostC12.wlan[0].radio  transmissionState:vector  ETV
attr interpolationmode  sample-hold
attr source  transmissionStateChanged
attr title  "Radio transmission state, vector"
vector 196  car_host_30.hostC14.wlan[0].radio  transmissionState:vector  ETV
attr interpolationmode  sample-hold
attr source  transmissionStateChanged
attr title  "Radio transmission state, vector"
vector 154  car_host_30.hostC10.wlan[0].radio  transmissionState:vector  ETV
attr interpolationmode  sample-hold
attr source  transmissionStateChanged
attr title  "Radio transmission state, vector"
vector 82  car_host_30.hostC3.wlan[0].radio  transmissionState:vector  ETV
attr interpolationmode  sample-hold
attr source  transmissionStateChanged
attr title  "Radio transmission state, vector"
vector 40  car_host_30.hostC.wlan[0].radio  transmissionState:vector  ETV
attr interpolationmode  sample-hold
attr source  transmissionStateChanged
attr title  "Radio transmission state, vector"
vector 190  car_host_30.hostC13.wlan[0].radio  transmissionState:vector  ETV
attr interpolationmode  sample-hold
attr source  transmissionStateChanged
attr title  "Radio transmission state, vector"
vector 160  car_host_30.hostC11.wlan[0].radio  transmissionState:vector  ETV
attr interpolationmode  sample-hold
attr source  transmissionStateChanged
attr title  "Radio transmission state, vector"
vector 94  car_host_30.hostC5.wlan[0].radio  transmissionState:vector  ETV
attr interpolationmode  sample-hold
attr source  transmissionStateChanged
attr title  "Radio transmission state, vector"
vector 28  car_host_30.hostD.wlan[0].radio  transmissionState:vector  ETV
attr interpolationmode  sample-hold
attr source  transmissionStateChanged
attr title  "Radio transmission state, vector"
vector 88  car_host_30.hostC4.wlan[0].radio  transmissionState:vector  ETV
attr interpolationmode  sample-hold
attr source  transmissionStateChanged
attr title  "Radio transmission state, vector"
vector 70  car_host_30.hostC1.wlan[0].radio  transmissionState:vector  ETV
attr interpolationmode  sample-hold
attr source  transmissionStateChanged
attr title  "Radio transmission state, vector"
vector 100  car_host_30.hostC6.wlan[0].radio  transmissionState:vector  ETV
attr interpolationmode  sample-hold
attr source  transmissionStateChanged
attr title  "Radio transmission state, vector"
vector 19  car_host_30.hostD.udp  rcvdPk:vector(packetBytes)  ETV
attr interpolationmode  none
attr source  rcvdPk
attr title  "packets received, vector(packetBytes)"
vector 20  car_host_30.hostD.udp  passedUpPk:vector(count)  ETV
attr interpolationmode  none
attr title  "packets passed up, vector(count)"
vector 15  car_host_30.hostD.udpApp[0]  rcvdPk:vector(packetBytes)  ETV
attr interpolationmode  none
attr source  rcvdPk
attr title  "packets received, vector(packetBytes)"
vector 16  car_host_30.hostD.udpApp[0]  endToEndDelay:vector  ETV
attr interpolationmode  none
attr source  messageAge(rcvdPk)
attr title  "end-to-end delay, vector"
attr unit  s
vector 17  car_host_30.hostD.udpApp[0]  rcvdPkSeqNo:vector  ETV
attr interpolationmode  none
attr source  appPkSeqNo(rcvdPk)
attr title  "received packet sequence number, vector"
1	102	0.1	1000
1	768	0.2	1000
1	771	0.3	1000
1	774	0.4	1000
1	2847	0.5	1000
1	2850	0.6	1000
1	2853	0.7	1000
1	2856	0.8	1000
1	2860	0.9	1000
1	5971	1	1000
1	5974	1.1	1000
1	5977	1.2	1000
1	5980	1.3	1000
1	5983	1.4	1000
1	5986	1.5	1000
1	9492	1.6	1000
1	10462	1.7	1000
1	11585	1.8	1000
1	12775	1.9	1000
1	13010	2	1000
1	13332	2.1	1000
1	13655	2.2	1000
1	13977	2.3	1000
1	14053	2.4	1000
1	14400	2.5	1000
1	14722	2.6	1000
1	15044	2.7	1000
1	15366	2.8	1000
1	15688	2.9	1000
1	16113	3	1000
1	16435	3.1	1000
1	16511	3.2	1000
1	16994	3.3	1000
1	17316	3.4	1000
1	17555	3.5	1000
1	18042	3.6	1000
1	18364	3.7	1000
1	18686	3.8	1000
1	19008	3.9	1000
1	19362	4	1000
1	19684	4.1	1000
1	20006	4.2	1000
1	20082	4.3	1000
1	20565	4.4	1000
1	21048	4.5	1000
1	21370	4.6	1000
1	21692	4.7	1000
1	22014	4.8	1000
1	22336	4.9	1000
1	22692	5	1000
1	23175	5.1	1000
1	23497	5.2	1000
1	23575	5.3	1000
1	23897	5.4	1000
1	24220	5.5	1000
1	24545	5.6	1000
1	24867	5.7	1000
1	25189	5.8	1000
1	25672	5.9	1000
1	26026	6	1000
1	26509	6.1	1000
1	26992	6.2	1000
1	27314	6.3	1000
1	27636	6.4	1000
1	27958	6.5	1000
1	28280	6.6	1000
1	28605	6.7	1000
1	29093	6.8	1000
1	29580	6.9	1000
1	29943	7	1000
1	30272	7.1	1000
1	30755	7.2	1000
1	31077	7.3	1000
1	31400	7.4	1000
1	31886	7.5	1000
1	32208	7.6	1000
1	32530	7.7	1000
1	33013	7.8	1000
1	33335	7.9	1000
1	33689	8	1000
1	34172	8.1	1000
1	34494	8.2	1000
1	34816	8.3	1000
1	35138	8.4	1000
1	35460	8.5	1000
1	35782	8.6	1000
1	36265	8.7	1000
1	36587	8.8	1000
1	36911	8.9	1000
1	37265	9	1000
1	37748	9.1	1000
1	38070	9.2	1000
1	38393	9.3	1000
1	38718	9.4	1000
1	39040	9.5	1000
1	39362	9.6	1000
1	39845	9.7	1000
1	40167	9.8	1000
1	40650	9.9	1000
1	41165	10	1000
1	41487	10.1	1000
1	41809	10.2	1000
1	42292	10.3	1000
1	42614	10.4	1000
1	43097	10.5	1000
1	43580	10.6	1000
1	43904	10.7	1000
1	44226	10.8	1000
1	44548	10.9	1000
1	45063	11	1000
1	45385	11.1	1000
1	45708	11.2	1000
1	46030	11.3	1000
1	46355	11.4	1000
1	46677	11.5	1000
1	47160	11.6	1000
1	47643	11.7	1000
1	47965	11.8	1000
1	48287	11.9	1000
1	48802	12	1000
1	49285	12.1	1000
1	49769	12.2	1000
1	50252	12.3	1000
1	50735	12.4	1000
1	50836	12.5	1000
1	51159	12.6	1000
1	51481	12.7	1000
1	51803	12.8	1000
1	52125	12.9	1000
1	52550	13	1000
1	52872	13.1	1000
1	53194	13.2	1000
1	53516	13.3	1000
1	53592	13.4	1000
1	53914	13.5	1000
1	54562	13.6	1000
1	54884	13.7	1000
1	55206	13.8	1000
1	55528	13.9	1000
1	55882	14	1000
1	56365	14.1	1000
1	56848	14.2	1000
1	57331	14.3	1000
1	57814	14.4	1000
1	58136	14.5	1000
1	58458	14.6	1000
1	58941	14.7	1000
1	59263	14.8	1000
1	59746	14.9	1000
1	60102	15	1000
1	60585	15.1	1000
1	60907	15.2	1000
1	61229	15.3	1000
1	61551	15.4	1000
1	61874	15.5	1000
1	62201	15.6	1000
1	62523	15.7	1000
1	62845	15.8	1000
1	63167	15.9	1000
1	63682	16	1000
1	64004	16.1	1000
1	64487	16.2	1000
1	64809	16.3	1000
1	65131	16.4	1000
1	65614	16.5	1000
1	65936	16.6	1000
1	66261	16.7	1000
1	66588	16.8	1000
1	66914	16.9	1000
1	67438	17	1000
1	67928	17.1	1000
1	68250	17.2	1000
1	68733	17.3	1000
1	69056	17.4	1000
1	69379	17.5	1000
1	69703	17.6	1000
1	70025	17.7	1000
1	70347	17.8	1000
1	70669	17.9	1000
1	71184	18	1000
1	71506	18.1	1000
1	71828	18.2	1000
1	71904	18.3	1000
1	72226	18.4	1000
1	72548	18.5	1000
1	72870	18.6	1000
1	73192	18.7	1000
1	73675	18.8	1000
1	73997	18.9	1000
1	74352	19	1000
1	74675	19.1	1000
1	74997	19.2	1000
1	75320	19.3	1000
1	75643	19.4	1000
1	75884	19.5	1000
1	76367	19.6	1000
1	76850	19.7	1000
1	77333	19.8	1000
1	77655	19.9	1000
1	78009	20	1000
1	78331	20.1	1000
1	78653	20.2	1000
1	78975	20.3	1000
1	79297	20.4	1000
1	79780	20.5	1000
1	80102	20.6	1000
1	80585	20.7	1000
1	80909	20.8	1000
1	81231	20.9	1000
1	81585	21	1000
1	82068	21.1	1000
1	82391	21.2	1000
1	82714	21.3	1000
1	83197	21.4	1000
1	83521	21.5	1000
1	84004	21.6	1000
1	84326	21.7	1000
1	84648	21.8	1000
1	84970	21.9	1000
1	85485	22	1000
1	85968	22.1	1000
1	86290	22.2	1000
1	86612	22.3	1000
1	86934	22.4	1000
1	87256	22.5	1000
1	87578	22.6	1000
1	87902	22.7	1000
1	88224	22.8	1000
1	88707	22.9	1000
1	89061	23	1000
1	89545	23.1	1000
1	90028	23.2	1000
1	90351	23.3	1000
1	90835	23.4	1000
1	91158	23.5	1000
1	91480	23.6	1000
1	91802	23.7	1000
1	92124	23.8	1000
1	92446	23.9	1000
1	92800	24	1000
1	93285	24.1	1000
1	93607	24.2	1000
1	93929	24.3	1000
1	94251	24.4	1000
1	94573	24.5	1000
1	95056	24.6	1000
1	95378	24.7	1000
1	95700	24.8	1000
1	95776	24.9	1000
1	96131	25	1000
1	96453	25.1	1000
1	96937	25.2	1000
1	97421	25.3	1000
1	97907	25.4	1000
1	98390	25.5	1000
1	98712	25.6	1000
1	99034	25.7	1000
1	99517	25.8	1000
1	99839	25.9	1000
1	100354	26	1000
1	100676	26.1	1000
1	100998	26.2	1000
1	101320	26.3	1000
1	101642	26.4	1000
1	101964	26.5	1000
1	102447	26.6	1000
1	102769	26.7	1000
1	103252	26.8	1000
1	103575	26.9	1000
1	103929	27	1000
1	104252	27.1	1000
1	104574	27.2	1000
1	104897	27.3	1000
1	105222	27.4	1000
1	105544	27.5	1000
1	106027	27.6	1000
1	106103	27.7	1000
1	106179	27.8	1000
1	106501	27.9	1000
1	106855	28	1000
1	107177	28.1	1000
1	107499	28.2	1000
1	107821	28.3	1000
1	108143	28.4	1000
1	108465	28.5	1000
1	108948	28.6	1000
1	109270	28.7	1000
1	109595	28.8	1000
1	109917	28.9	1000
1	110271	29	1000
1	110755	29.1	1000
1	111077	29.2	1000
1	111401	29.3	1000
1	111884	29.4	1000
1	112206	29.5	1000
1	112528	29.6	1000
1	112850	29.7	1000
1	113172	29.8	1000
1	113248	29.9	1000
1	113602	30	1000
1	113924	30.1	1000
1	114246	30.2	1000
1	114568	30.3	1000
1	114890	30.4	1000
1	115129	30.5	1000
1	115207	30.6	1000
1	115530	30.7	1000
1	115852	30.8	1000
1	116174	30.9	1000
1	116529	31	1000
1	116851	31.1	1000
1	117334	31.2	1000
1	117658	31.3	1000
1	118143	31.4	1000
1	118465	31.5	1000
1	118541	31.6	1000
1	118863	31.7	1000
1	119185	31.8	1000
1	119507	31.9	1000
1	120022	32	1000
1	120505	32.1	1000
1	120827	32.2	1000
1	121149	32.3	1000
1	121471	32.4	1000
1	121793	32.5	1000
1	122116	32.6	1000
1	122438	32.7	1000
1	122760	32.8	1000
1	123083	32.9	1000
1	123191	33	1000
1	123513	33.1	1000
1	123839	33.2	1000
1	124161	33.3	1000
1	124644	33.4	1000
1	125127	33.5	1000
1	125610	33.6	1000
1	125932	33.7	1000
1	126008	33.8	1000
1	126330	33.9	1000
1	126684	34	1000
1	127008	34.1	1000
1	127330	34.2	1000
1	127652	34.3	1000
1	128135	34.4	1000
1	128619	34.5	1000
1	128941	34.6	1000
1	129263	34.7	1000
1	129585	34.8	1000
1	130069	34.9	1000
1	130423	35	1000
1	130745	35.1	1000
1	131069	35.2	1000
1	131391	35.3	1000
1	131713	35.4	1000
1	132196	35.5	1000
1	132520	35.6	1000
1	133003	35.7	1000
1	133325	35.8	1000
1	133808	35.9	1000
1	134162	36	1000
1	134645	36.1	1000
1	134967	36.2	1000
1	135289	36.3	1000
1	135773	36.4	1000
1	136095	36.5	1000
1	136578	36.6	1000
1	136900	36.7	1000
1	137223	36.8	1000
1	137545	36.9	1000
1	137899	37	1000
1	138223	37.1	1000
1	138545	37.2	1000
1	138867	37.3	1000
1	139189	37.4	1000
1	139430	37.5	1000
1	139752	37.6	1000
1	140074	37.7	1000
1	140396	37.8	1000
1	140718	37.9	1000
1	141233	38	1000
1	141555	38.1	1000
1	142038	38.2	1000
1	142522	38.3	1000
1	143005	38.4	1000
1	143488	38.5	1000
1	143973	38.6	1000
1	144456	38.7	1000
1	144779	38.8	1000
1	145101	38.9	1000
1	145455	39	1000
1	145779	39.1	1000
1	146101	39.2	1000
1	146423	39.3	1000
1	146745	39.4	1000
1	147067	39.5	1000
1	147389	39.6	1000
1	147711	39.7	1000
1	148194	39.8	1000
1	148516	39.9	1000
1	148870	40	1000
1	149192	40.1	1000
1	149515	40.2	1000
1	149837	40.3	1000
1	150320	40.4	1000
1	150643	40.5	1000
1	150966	40.6	1000
1	151289	40.7	1000
1	151611	40.8	1000
1	151933	40.9	1000
1	152289	41	1000
1	152611	41.1	1000
1	153094	41.2	1000
1	153416	41.3	1000
1	153738	41.4	1000
1	154060	41.5	1000
1	154543	41.6	1000
1	155026	41.7	1000
1	155348	41.8	1000
1	155670	41.9	1000
1	156024	42	1000
1	156508	42.1	1000
1	156991	42.2	1000
1	157313	42.3	1000
1	157637	42.4	1000
1	157959	42.5	1000
1	158282	42.6	1000
1	158604	42.7	1000
1	158926	42.8	1000
1	159248	42.9	1000
1	159604	43	1000
1	159926	43.1	1000
1	160248	43.2	1000
1	160570	43.3	1000
1	161053	43.4	1000
1	161536	43.5	1000
1	161858	43.6	1000
1	162180	43.7	1000
1	162502	43.8	1000
1	162985	43.9	1000
1	163340	44	1000
1	163823	44.1	1000
1	164147	44.2	1000
1	164469	44.3	1000
1	164545	44.4	1000
1	164867	44.5	1000
1	165351	44.6	1000
1	165673	44.7	1000
1	166156	44.8	1000
1	166233	44.9	1000
1	166588	45	1000
1	166910	45.1	1000
1	167232	45.2	1000
1	167715	45.3	1000
1	168037	45.4	1000
1	168359	45.5	1000
1	168842	45.6	1000
1	169164	45.7	1000
1	169647	45.8	1000
1	170131	45.9	1000
1	170646	46	1000
1	170970	46.1	1000
1	171292	46.2	1000
1	171614	46.3	1000
1	172097	46.4	1000
1	172419	46.5	1000
1	172742	46.6	1000
1	173064	46.7	1000
1	173388	46.8	1000
1	173871	46.9	1000
1	174386	47	1000
1	174869	47.1	1000
1	175352	47.2	1000
1	175674	47.3	1000
1	175996	47.4	1000
1	176318	47.5	1000
1	176640	47.6	1000
1	176962	47.7	1000
1	177446	47.8	1000
1	177768	47.9	1000
1	178285	48	1000
1	178607	48.1	1000
1	178929	48.2	1000
1	179251	48.3	1000
1	179734	48.4	1000
1	180056	48.5	1000
1	180379	48.6	1000
1	180703	48.7	1000
1	181025	48.8	1000
1	181347	48.9	1000
1	181701	49	1000
1	182023	49.1	1000
1	182345	49.2	1000
1	182828	49.3	1000
1	183067	49.4	1000
1	183389	49.5	1000
1	183711	49.6	1000
1	184034	49.7	1000
1	184356	49.8	1000
1	184839	49.9	1000
1	185356	50	1000
1	185839	50.1	1000
1	186161	50.2	1000
1	186483	50.3	1000
1	186966	50.4	1000
1	187289	50.5	1000
1	187612	50.6	1000
1	187935	50.7	1000
1	188257	50.8	1000
1	188579	50.9	1000
1	188933	51	1000
1	189416	51.1	1000
1	189738	51.2	1000
1	190060	51.3	1000
1	190543	51.4	1000
1	190865	51.5	1000
1	191188	51.6	1000
1	191510	51.7	1000
1	191749	51.8	1000
1	192072	51.9	1000
1	192427	52	1000
1	192749	52.1	1000
1	193071	52.2	1000
1	193554	52.3	1000
1	193876	52.4	1000
1	194199	52.5	1000
1	194523	52.6	1000
1	194845	52.7	1000
1	195167	52.8	1000
1	195489	52.9	1000
1	196004	53	1000
1	196326	53.1	1000
1	196809	53.2	1000
1	197131	53.3	1000
1	197455	53.4	1000
1	197778	53.5	1000
1	198100	53.6	1000
1	198422	53.7	1000
1	198744	53.8	1000
1	199066	53.9	1000
1	199420	54	1000
1	199742	54.1	1000
1	200225	54.2	1000
1	200547	54.3	1000
1	200870	54.4	1000
1	201193	54.5	1000
1	201516	54.6	1000
1	201999	54.7	1000
1	202321	54.8	1000
1	202643	54.9	1000
1	202997	55	1000
1	203319	55.1	1000
1	203643	55.2	1000
1	204126	55.3	1000
1	204610	55.4	1000
1	205093	55.5	1000
1	205576	55.6	1000
1	205898	55.7	1000
1	206381	55.8	1000
1	206703	55.9	1000
1	207057	56	1000
1	207379	56.1	1000
1	207701	56.2	1000
1	208023	56.3	1000
1	208347	56.4	1000
1	208669	56.5	1000
1	208992	56.6	1000
1	209316	56.7	1000
1	209638	56.8	1000
1	210121	56.9	1000
1	210475	57	1000
1	210797	57.1	1000
1	211119	57.2	1000
1	211603	57.3	1000
1	211925	57.4	1000
1	212408	57.5	1000
1	212891	57.6	1000
1	213374	57.7	1000
1	213859	57.8	1000
1	214181	57.9	1000
1	214535	58	1000
1	214857	58.1	1000
1	215179	58.2	1000
1	215664	58.3	1000
1	215986	58.4	1000
1	216470	58.5	1000
1	216792	58.6	1000
1	217114	58.7	1000
1	217436	58.8	1000
1	217758	58.9	1000
1	218273	59	1000
1	218595	59.1	1000
1	218918	59.2	1000
1	219401	59.3	1000
1	219723	59.4	1000
1	220045	59.5	1000
1	220367	59.6	1000
1	220851	59.7	1000
1	221174	59.8	1000
1	221657	59.9	1000
1	222172	60	1000
4	104	0.1	1008
4	769	0.2	1008
4	772	0.3	1008
4	775	0.4	1008
4	2848	0.5	1008
4	2851	0.6	1008
4	2854	0.7	1008
4	2857	0.8	1008
4	2861	0.9	1008
4	5972	1	1008
4	5975	1.1	1008
4	5978	1.2	1008
4	5981	1.3	1008
4	5984	1.4	1008
4	5987	1.5	1008
4	9493	1.6	1008
4	10463	1.7	1008
4	11586	1.8	1008
4	12776	1.9	1008
4	13011	2	1008
4	13333	2.1	1008
4	13656	2.2	1008
4	13978	2.3	1008
4	14054	2.4	1008
4	14401	2.5	1008
4	14723	2.6	1008
4	15045	2.7	1008
4	15367	2.8	1008
4	15689	2.9	1008
4	16114	3	1008
4	16436	3.1	1008
4	16512	3.2	1008
4	16995	3.3	1008
4	17317	3.4	1008
4	17556	3.5	1008
4	18043	3.6	1008
4	18365	3.7	1008
4	18687	3.8	1008
4	19009	3.9	1008
4	19363	4	1008
4	19685	4.1	1008
4	20007	4.2	1008
4	20083	4.3	1008
4	20566	4.4	1008
4	21049	4.5	1008
4	21371	4.6	1008
4	21693	4.7	1008
4	22015	4.8	1008
4	22337	4.9	1008
4	22693	5	1008
4	23176	5.1	1008
4	23498	5.2	1008
4	23576	5.3	1008
4	23898	5.4	1008
4	24221	5.5	1008
4	24546	5.6	1008
4	24868	5.7	1008
4	25190	5.8	1008
4	25673	5.9	1008
4	26027	6	1008
4	26510	6.1	1008
4	26993	6.2	1008
4	27315	6.3	1008
4	27637	6.4	1008
4	27959	6.5	1008
4	28281	6.6	1008
4	28606	6.7	1008
4	29094	6.8	1008
4	29581	6.9	1008
4	29944	7	1008
4	30273	7.1	1008
4	30756	7.2	1008
4	31078	7.3	1008
4	31401	7.4	1008
4	31887	7.5	1008
4	32209	7.6	1008
4	32531	7.7	1008
4	33014	7.8	1008
4	33336	7.9	1008
4	33690	8	1008
4	34173	8.1	1008
4	34495	8.2	1008
4	34817	8.3	1008
4	35139	8.4	1008
4	35461	8.5	1008
4	35783	8.6	1008
4	36266	8.7	1008
4	36588	8.8	1008
4	36912	8.9	1008
4	37266	9	1008
4	37749	9.1	1008
4	38071	9.2	1008
4	38394	9.3	1008
4	38719	9.4	1008
4	39041	9.5	1008
4	39363	9.6	1008
4	39846	9.7	1008
4	40168	9.8	1008
4	40651	9.9	1008
4	41166	10	1008
4	41488	10.1	1008
4	41810	10.2	1008
4	42293	10.3	1008
4	42615	10.4	1008
4	43098	10.5	1008
4	43581	10.6	1008
4	43905	10.7	1008
4	44227	10.8	1008
4	44549	10.9	1008
4	45064	11	1008
4	45386	11.1	1008
4	45709	11.2	1008
4	46031	11.3	1008
4	46356	11.4	1008
4	46678	11.5	1008
4	47161	11.6	1008
4	47644	11.7	1008
4	47966	11.8	1008
4	48288	11.9	1008
4	48803	12	1008
4	49286	12.1	1008
4	49770	12.2	1008
4	50253	12.3	1008
4	50736	12.4	1008
4	50837	12.5	1008
4	51160	12.6	1008
4	51482	12.7	1008
4	51804	12.8	1008
4	52126	12.9	1008
4	52551	13	1008
4	52873	13.1	1008
4	53195	13.2	1008
4	53517	13.3	1008
4	53593	13.4	1008
4	53915	13.5	1008
4	54563	13.6	1008
4	54885	13.7	1008
4	55207	13.8	1008
4	55529	13.9	1008
4	55883	14	1008
4	56366	14.1	1008
4	56849	14.2	1008
4	57332	14.3	1008
4	57815	14.4	1008
4	58137	14.5	1008
4	58459	14.6	1008
4	58942	14.7	1008
4	59264	14.8	1008
4	59747	14.9	1008
4	60103	15	1008
4	60586	15.1	1008
4	60908	15.2	1008
4	61230	15.3	1008
4	61552	15.4	1008
4	61875	15.5	1008
4	62202	15.6	1008
4	62524	15.7	1008
4	62846	15.8	1008
4	63168	15.9	1008
4	63683	16	1008
4	64005	16.1	1008
4	64488	16.2	1008
4	64810	16.3	1008
4	65132	16.4	1008
4	65615	16.5	1008
4	65937	16.6	1008
4	66262	16.7	1008
4	66589	16.8	1008
4	66915	16.9	1008
4	67439	17	1008
4	67929	17.1	1008
4	68251	17.2	1008
4	68734	17.3	1008
4	69057	17.4	1008
4	69380	17.5	1008
4	69704	17.6	1008
4	70026	17.7	1008
4	70348	17.8	1008
4	70670	17.9	1008
4	71185	18	1008
4	71507	18.1	1008
4	71829	18.2	1008
4	71905	18.3	1008
4	72227	18.4	1008
4	72549	18.5	1008
4	72871	18.6	1008
4	73193	18.7	1008
4	73676	18.8	1008
4	73998	18.9	1008
4	74353	19	1008
4	74676	19.1	1008
4	74998	19.2	1008
4	75321	19.3	1008
4	75644	19.4	1008
4	75885	19.5	1008
4	76368	19.6	1008
4	76851	19.7	1008
4	77334	19.8	1008
4	77656	19.9	1008
4	78010	20	1008
4	78332	20.1	1008
4	78654	20.2	1008
4	78976	20.3	1008
4	79298	20.4	1008
4	79781	20.5	1008
4	80103	20.6	1008
4	80586	20.7	1008
4	80910	20.8	1008
4	81232	20.9	1008
4	81586	21	1008
4	82069	21.1	1008
4	82392	21.2	1008
4	82715	21.3	1008
4	83198	21.4	1008
4	83522	21.5	1008
4	84005	21.6	1008
4	84327	21.7	1008
4	84649	21.8	1008
4	84971	21.9	1008
4	85486	22	1008
4	85969	22.1	1008
4	86291	22.2	1008
4	86613	22.3	1008
4	86935	22.4	1008
4	87257	22.5	1008
4	87579	22.6	1008
4	87903	22.7	1008
4	88225	22.8	1008
4	88708	22.9	1008
4	89062	23	1008
4	89546	23.1	1008
4	90029	23.2	1008
4	90352	23.3	1008
4	90836	23.4	1008
4	91159	23.5	1008
4	91481	23.6	1008
4	91803	23.7	1008
4	92125	23.8	1008
4	92447	23.9	1008
4	92801	24	1008
4	93286	24.1	1008
4	93608	24.2	1008
4	93930	24.3	1008
4	94252	24.4	1008
4	94574	24.5	1008
4	95057	24.6	1008
4	95379	24.7	1008
4	95701	24.8	1008
4	95777	24.9	1008
4	96132	25	1008
4	96454	25.1	1008
4	96938	25.2	1008
4	97422	25.3	1008
4	97908	25.4	1008
4	98391	25.5	1008
4	98713	25.6	1008
4	99035	25.7	1008
4	99518	25.8	1008
4	99840	25.9	1008
4	100355	26	1008
4	100677	26.1	1008
4	100999	26.2	1008
4	101321	26.3	1008
4	101643	26.4	1008
4	101965	26.5	1008
4	102448	26.6	1008
4	102770	26.7	1008
4	103253	26.8	1008
4	103576	26.9	1008
4	103930	27	1008
4	104253	27.1	1008
4	104575	27.2	1008
4	104898	27.3	1008
4	105223	27.4	1008
4	105545	27.5	1008
4	106028	27.6	1008
4	106104	27.7	1008
4	106180	27.8	1008
4	106502	27.9	1008
4	106856	28	1008
4	107178	28.1	1008
4	107500	28.2	1008
4	107822	28.3	1008
4	108144	28.4	1008
4	108466	28.5	1008
4	108949	28.6	1008
4	109271	28.7	1008
4	109596	28.8	1008
4	109918	28.9	1008
4	110272	29	1008
4	110756	29.1	1008
4	111078	29.2	1008
4	111402	29.3	1008
4	111885	29.4	1008
4	112207	29.5	1008
4	112529	29.6	1008
4	112851	29.7	1008
4	113173	29.8	1008
4	113249	29.9	1008
4	113603	30	1008
4	113925	30.1	1008
4	114247	30.2	1008
4	114569	30.3	1008
4	114891	30.4	1008
4	115130	30.5	1008
4	115208	30.6	1008
4	115531	30.7	1008
4	115853	30.8	1008
4	116175	30.9	1008
4	116530	31	1008
4	116852	31.1	1008
4	117335	31.2	1008
4	117659	31.3	1008
4	118144	31.4	1008
4	118466	31.5	1008
4	118542	31.6	1008
4	118864	31.7	1008
4	119186	31.8	1008
4	119508	31.9	1008
4	120023	32	1008
4	120506	32.1	1008
4	120828	32.2	1008
4	121150	32.3	1008
4	121472	32.4	1008
4	121794	32.5	1008
4	122117	32.6	1008
4	122439	32.7	1008
4	122761	32.8	1008
4	123084	32.9	1008
4	123192	33	1008
4	123514	33.1	1008
4	123840	33.2	1008
4	124162	33.3	1008
4	124645	33.4	1008
4	125128	33.5	1008
4	125611	33.6	1008
4	125933	33.7	1008
4	126009	33.8	1008
4	126331	33.9	1008
4	126685	34	1008
4	127009	34.1	1008
4	127331	34.2	1008
4	127653	34.3	1008
4	128136	34.4	1008
4	128620	34.5	1008
4	128942	34.6	1008
4	129264	34.7	1008
4	129586	34.8	1008
4	130070	34.9	1008
4	130424	35	1008
4	130746	35.1	1008
4	131070	35.2	1008
4	131392	35.3	1008
4	131714	35.4	1008
4	132197	35.5	1008
4	132521	35.6	1008
4	133004	35.7	1008
4	133326	35.8	1008
4	133809	35.9	1008
4	134163	36	1008
4	134646	36.1	1008
4	134968	36.2	1008
4	135290	36.3	1008
4	135774	36.4	1008
4	136096	36.5	1008
4	136579	36.6	1008
4	136901	36.7	1008
4	137224	36.8	1008
4	137546	36.9	1008
4	137900	37	1008
4	138224	37.1	1008
4	138546	37.2	1008
4	138868	37.3	1008
4	139190	37.4	1008
4	139431	37.5	1008
4	139753	37.6	1008
4	140075	37.7	1008
4	140397	37.8	1008
4	140719	37.9	1008
4	141234	38	1008
4	141556	38.1	1008
4	142039	38.2	1008
4	142523	38.3	1008
4	143006	38.4	1008
4	143489	38.5	1008
4	143974	38.6	1008
4	144457	38.7	1008
4	144780	38.8	1008
4	145102	38.9	1008
4	145456	39	1008
4	145780	39.1	1008
4	146102	39.2	1008
4	146424	39.3	1008
4	146746	39.4	1008
4	147068	39.5	1008
4	147390	39.6	1008
4	147712	39.7	1008
4	148195	39.8	1008
4	148517	39.9	1008
4	148871	40	1008
4	149193	40.1	1008
4	149516	40.2	1008
4	149838	40.3	1008
4	150321	40.4	1008
4	150644	40.5	1008
4	150967	40.6	1008
4	151290	40.7	1008
4	151612	40.8	1008
4	151934	40.9	1008
4	152290	41	1008
4	152612	41.1	1008
4	153095	41.2	1008
4	153417	41.3	1008
4	153739	41.4	1008
4	154061	41.5	1008
4	154544	41.6	1008
4	155027	41.7	1008
4	155349	41.8	1008
4	155671	41.9	1008
4	156025	42	1008
4	156509	42.1	1008
4	156992	42.2	1008
4	157314	42.3	1008
4	157638	42.4	1008
4	157960	42.5	1008
4	158283	42.6	1008
4	158605	42.7	1008
4	158927	42.8	1008
4	159249	42.9	1008
4	159605	43	1008
4	159927	43.1	1008
4	160249	43.2	1008
4	160571	43.3	1008
4	161054	43.4	1008
4	161537	43.5	1008
4	161859	43.6	1008
4	162181	43.7	1008
4	162503	43.8	1008
4	162986	43.9	1008
4	163341	44	1008
4	163824	44.1	1008
4	164148	44.2	1008
4	164470	44.3	1008
4	164546	44.4	1008
4	164868	44.5	1008
4	165352	44.6	1008
4	165674	44.7	1008
4	166157	44.8	1008
4	166234	44.9	1008
4	166589	45	1008
4	166911	45.1	1008
4	167233	45.2	1008
4	167716	45.3	1008
4	168038	45.4	1008
4	168360	45.5	1008
4	168843	45.6	1008
4	169165	45.7	1008
4	169648	45.8	1008
4	170132	45.9	1008
4	170647	46	1008
4	170971	46.1	1008
4	171293	46.2	1008
4	171615	46.3	1008
4	172098	46.4	1008
4	172420	46.5	1008
4	172743	46.6	1008
4	173065	46.7	1008
4	173389	46.8	1008
4	173872	46.9	1008
4	174387	47	1008
4	174870	47.1	1008
4	175353	47.2	1008
4	175675	47.3	1008
4	175997	47.4	1008
4	176319	47.5	1008
4	176641	47.6	1008
4	176963	47.7	1008
4	177447	47.8	1008
4	177769	47.9	1008
4	178286	48	1008
4	178608	48.1	1008
4	178930	48.2	1008
4	179252	48.3	1008
4	179735	48.4	1008
4	180057	48.5	1008
4	180380	48.6	1008
4	180704	48.7	1008
4	181026	48.8	1008
4	181348	48.9	1008
4	181702	49	1008
4	182024	49.1	1008
4	182346	49.2	1008
4	182829	49.3	1008
4	183068	49.4	1008
4	183390	49.5	1008
4	183712	49.6	1008
4	184035	49.7	1008
4	184357	49.8	1008
4	184840	49.9	1008
4	185357	50	1008
4	185840	50.1	1008
4	186162	50.2	1008
4	186484	50.3	1008
4	186967	50.4	1008
4	187290	50.5	1008
4	187613	50.6	1008
4	187936	50.7	1008
4	188258	50.8	1008
4	188580	50.9	1008
4	188934	51	1008
4	189417	51.1	1008
4	189739	51.2	1008
4	190061	51.3	1008
4	190544	51.4	1008
4	190866	51.5	1008
4	191189	51.6	1008
4	191511	51.7	1008
4	191750	51.8	1008
4	192073	51.9	1008
4	192428	52	1008
4	192750	52.1	1008
4	193072	52.2	1008
4	193555	52.3	1008
4	193877	52.4	1008
4	194200	52.5	1008
4	194524	52.6	1008
4	194846	52.7	1008
4	195168	52.8	1008
4	195490	52.9	1008
4	196005	53	1008
4	196327	53.1	1008
4	196810	53.2	1008
4	197132	53.3	1008
4	197456	53.4	1008
4	197779	53.5	1008
4	198101	53.6	1008
4	198423	53.7	1008
4	198745	53.8	1008
4	199067	53.9	1008
4	199421	54	1008
4	199743	54.1	1008
4	200226	54.2	1008
4	200548	54.3	1008
4	200871	54.4	1008
4	201194	54.5	1008
4	201517	54.6	1008
4	202000	54.7	1008
4	202322	54.8	1008
4	202644	54.9	1008
4	202998	55	1008
4	203320	55.1	1008
4	203644	55.2	1008
4	204127	55.3	1008
4	204611	55.4	1008
4	205094	55.5	1008
4	205577	55.6	1008
4	205899	55.7	1008
4	206382	55.8	1008
4	206704	55.9	1008
4	207058	56	1008
4	207380	56.1	1008
4	207702	56.2	1008
4	208024	56.3	1008
4	208348	56.4	1008
4	208670	56.5	1008
4	208993	56.6	1008
4	209317	56.7	1008
4	209639	56.8	1008
4	210122	56.9	1008
4	210476	57	1008
4	210798	57.1	1008
4	211120	57.2	1008
4	211604	57.3	1008
4	211926	57.4	1008
4	212409	57.5	1008
4	212892	57.6	1008
4	213375	57.7	1008
4	213860	57.8	1008
4	214182	57.9	1008
4	214536	58	1008
4	214858	58.1	1008
4	215180	58.2	1008
4	215665	58.3	1008
4	215987	58.4	1008
4	216471	58.5	1008
4	216793	58.6	1008
4	217115	58.7	1008
4	217437	58.8	1008
4	217759	58.9	1008
4	218274	59	1008
4	218596	59.1	1008
4	218919	59.2	1008
4	219402	59.3	1008
4	219724	59.4	1008
4	220046	59.5	1008
4	220368	59.6	1008
4	220852	59.7	1008
4	221175	59.8	1008
4	221658	59.9	1008
4	222173	60	1008
12	0	0	0
12	0	0	2
12	108	0.103459153334	3
12	141	0.103949153334	2
12	780	0.423233007242	3
12	813	0.423723007242	2
12	2865	0.903701717429	3
12	2898	0.904191717429	2
12	5992	1.544760221974	3
12	6025	1.545250221974	2
12	9235	1.573361108999	3
12	9271	1.581659108999	2
12	9311	1.581759108999	3
12	9345	1.590057108999	2
12	9346	1.590057108999	3
12	9419	1.598355108999	2
12	9543	1.607334465363	3
12	9577	1.615632465363	2
12	9777	1.632709821727	3
12	9811	1.641007821727	2
12	9851	1.641087821727	3
12	9885	1.649385821727	2
12	10008	1.657825834481	3
12	10075	1.666123834481	2
12	10113	1.666663834481	3
12	10193	1.674961834481	2
12	10546	1.700197894629	3
12	10613	1.708495894629	2
12	10651	1.708775894629	3
12	10732	1.717073894629	2
12	10733	1.717073894629	3
12	10805	1.725371894629	2
12	11005	1.742329250993	3
12	11039	1.750627250993	2
12	11040	1.750627250993	3
12	11113	1.758925250993	2
12	11349	1.776003287444	3
12	11430	1.784301287444	2
12	11638	1.801399300198	3
12	11705	1.809697300198	2
12	11822	1.810197300198	3
12	11903	1.818495300198	2
12	12021	1.827234656562	3
12	12056	1.835532656562	2
12	12342	1.861168693013	3
12	12409	1.869466693013	2
12	12779	1.90052	3
12	12891	1.908818	2
12	13014	2.00002	3
12	13047	2.008318	2
12	13336	2.10046	3
12	13369	2.108758	2
12	13659	2.2001	3
12	13692	2.208398	2
12	13981	2.30024	3
12	14014	2.308538	2
12	14057	2.40032	3
12	14090	2.408618	2
12	14404	2.50008	3
12	14437	2.508378	2
12	14726	2.60004	3
12	14759	2.608338	2
12	15048	2.70038	3
12	15081	2.708678	2
12	15370	2.80046	3
12	15403	2.808758	2
12	15692	2.9	3
12	15744	2.908298	2
12	16117	3.00004	3
12	16150	3.008338	2
12	16439	3.10058	3
12	16472	3.108878	2
12	16515	3.20008	3
12	16548	3.208378	2
12	16998	3.30036	3
12	17031	3.308658	2
12	17320	3.40034	3
12	17353	3.408638	2
12	17559	3.5002	3
12	17592	3.508498	2
12	18046	3.60054	3
12	18079	3.608838	2
12	18368	3.70028	3
12	18401	3.708578	2
12	18690	3.80054	3
12	18723	3.808838	2
12	19012	3.90062	3
12	19045	3.908918	2
12	19366	4.00042	3
12	19399	4.008718	2
12	19688	4.10022	3
12	19721	4.108518	2
12	20010	4.20032	3
12	20043	4.208618	2
12	20086	4.30034	3
12	20119	4.308638	2
12	20569	4.40008	3
12	20602	4.408378	2
12	21052	4.5002	3
12	21085	4.508498	2
12	21374	4.60052	3
12	21407	4.608818	2
12	21696	4.70022	3
12	21729	4.708518	2
12	22018	4.80026	3
12	22051	4.808558	2
12	22340	4.90048	3
12	22373	4.908778	2
12	22696	5.00062	3
12	22729	5.008918	2
12	23179	5.10016	3
12	23212	5.108458	2
12	23501	5.20058	3
12	23534	5.208878	2
12	23579	5.3002	3
12	23612	5.308498	2
12	23901	5.40014	3
12	23934	5.408438	2
12	24224	5.50056	3
12	24258	5.508858	2
12	24549	5.60014	3
12	24582	5.608438	2
12	24871	5.7006	3
12	24904	5.708898	2
12	25193	5.80016	3
12	25226	5.808458	2
12	25676	5.90054	3
12	25709	5.908838	2
12	26030	6	3
12	26063	6.008298	2
12	26513	6.10052	3
12	26546	6.108818	2
12	26996	6.20054	3
12	27029	6.208838	2
12	27318	6.30008	3
12	27351	6.308378	2
12	27640	6.4002	3
12	27673	6.408498	2
12	27962	6.50044	3
12	27995	6.508738	2
12	28284	6.60028	3
12	28317	6.608578	2
12	28609	6.7003	3
12	28642	6.708598	2
12	29097	6.8005	3
12	29130	6.808798	2
12	29584	6.9002	3
12	29621	6.908498	2
12	29947	7.00024	3
12	29980	7.008538	2
12	30276	7.10046	3
12	30309	7.108758	2
12	30759	7.20034	3
12	30792	7.208638	2
12	31081	7.30056	3
12	31114	7.308858	2
12	31404	7.4002	3
12	31438	7.408498	2
12	31890	7.5006	3
12	31923	7.508898	2
12	32212	7.60018	3
12	32245	7.608478	2
12	32534	7.7	3
12	32567	7.708298	2
12	33017	7.8	3
12	33050	7.808298	2
12	33339	7.90042	3
12	33372	7.908718	2
12	33693	8.00016	3
12	33726	8.008458	2
12	34176	8.10026	3
12	34209	8.108558	2
12	34498	8.2006	3
12	34531	8.208898	2
12	34820	8.30062	3
12	34853	8.308918	2
12	35142	8.40038	3
12	35175	8.408678	2
12	35464	8.50028	3
12	35497	8.508578	2
12	35786	8.60042	3
12	35819	8.608718	2
12	36269	8.70006	3
12	36302	8.708358	2
12	36591	8.8	3
12	36624	8.808298	2
12	36915	8.90014	3
12	36948	8.908438	2
12	37269	9.0006	3
12	37302	9.008898	2
12	37752	9.10032	3
12	37785	9.108618	2
12	38074	9.20046	3
12	38107	9.208758	2
12	38397	9.3	3
12	38430	9.308298	2
12	38722	9.40042	3
12	38755	9.408718	2
12	39044	9.50018	3
12	39077	9.508478	2
12	39366	9.60018	3
12	39399	9.608478	2
12	39849	9.70032	3
12	39882	9.708618	2
12	40171	9.80014	3
12	40204	9.808438	2
12	40654	9.90004	3
12	40687	9.908338	2
12	41169	10.00048	3
12	41202	10.008778	2
12	41491	10.10022	3
12	41524	10.108518	2
12	41813	10.2003	3
12	41846	10.208598	2
12	42296	10.30042	3
12	42329	10.308718	2
12	42618	10.4001	3
12	42651	10.408398	2
12	43101	10.50004	3
12	43134	10.508338	2
12	43584	10.60032	3
12	43617	10.608618	2
12	43908	10.70026	3
12	43941	10.708558	2
12	44230	10.80054	3
12	44263	10.808838	2
12	44552	10.90052	3
12	44585	10.908818	2
12	45067	11.00058	3
12	45100	11.008878	2
12	45389	11.10034	3
12	45422	11.108638	2
12	45712	11.2	3
12	45745	11.208298	2
12	46034	11.30018	3
12	46068	11.308478	2
12	46359	11.40032	3
12	46392	11.408618	2
12	46681	11.5	3
12	46714	11.508298	2
12	47164	11.60004	3
12	47197	11.608338	2
12	47647	11.70012	3
12	47680	11.708418	2
12	47969	11.80014	3
12	48002	11.808438	2
12	48291	11.90002	3
12	48324	11.908318	2
12	48806	12.00048	3
12	48839	12.008778	2
12	49289	12.10062	3
12	49322	12.108918	2
12	49773	12.20006	3
12	49806	12.208358	2
12	50256	12.30006	3
12	50289	12.308358	2
12	50739	12.40048	3
12	50772	12.408778	2
12	50840	12.50042	3
12	50873	12.508718	2
12	51163	12.60056	3
12	51196	12.608858	2
12	51485	12.70022	3
12	51518	12.708518	2
12	51807	12.8002	3
12	51840	12.808498	2
12	52129	12.90034	3
12	52181	12.908638	2
12	52554	13.0006	3
12	52587	13.008898	2
12	52876	13.10062	3
12	52909	13.108918	2
12	53198	13.20044	3
12	53231	13.208738	2
12	53520	13.30046	3
12	53553	13.308758	2
12	53596	13.4001	3
12	53629	13.408398	2
12	53918	13.50036	3
12	53951	13.508658	2
12	54566	13.60018	3
12	54599	13.608478	2
12	54888	13.7	3
12	54921	13.708298	2
12	55210	13.80054	3
12	55243	13.808838	2
12	55532	13.9006	3
12	55565	13.908898	2
12	55886	14.00024	3
12	55919	14.008538	2
12	56369	14.10022	3
12	56402	14.108518	2
12	56852	14.20062	3
12	56885	14.208918	2
12	57335	14.30044	3
12	57368	14.308738	2
12	57818	14.40004	3
12	57851	14.408338	2
12	58140	14.50034	3
12	58173	14.508638	2
12	58462	14.6003	3
12	58495	14.608598	2
12	58945	14.70036	3
12	58978	14.708658	2
12	59267	14.80024	3
12	59300	14.808538	2
12	59750	14.9004	3
12	59783	14.908698	2
12	60106	15.00056	3
12	60139	15.008858	2
12	60589	15.10048	3
12	60622	15.108778	2
12	60911	15.20028	3
12	60944	15.208578	2
12	61233	15.30048	3
12	61266	15.308778	2
12	61555	15.40026	3
12	61588	15.408558	2
12	61878	15.50018	3
12	61911	15.508478	2
12	62205	15.6003	3
12	62238	15.608598	2
12	62527	15.70038	3
12	62560	15.708678	2
12	62849	15.80004	3
12	62882	15.808338	2
12	63171	15.9006	3
12	63204	15.908898	2
12	63686	16.00048	3
12	63719	16.008778	2
12	64008	16.10058	3
12	64041	16.108878	2
12	64491	16.20024	3
12	64524	16.208538	2
12	64813	16.30044	3
12	64846	16.308738	2
12	65135	16.40054	3
12	65168	16.408838	2
12	65618	16.50052	3
12	65651	16.508818	2
12	65940	16.6002	3
12	65973	16.608498	2
12	66265	16.70038	3
12	66298	16.708678	2
12	66592	16.8001	3
12	66625	16.808398	2
12	66918	16.90004	3
12	66955	16.908338	2
12	67442	17.0004	3
12	67475	17.008698	2
12	67932	17.10056	3
12	67965	17.108858	2
12	68254	17.20056	3
12	68287	17.208858	2
12	68737	17.30036	3
12	68770	17.308658	2
12	69060	17.40046	3
12	69093	17.408758	2
12	69383	17.5003	3
12	69417	17.508598	2
12	69707	17.60036	3
12	69740	17.608658	2
12	70029	17.70052	3
12	70062	17.708818	2
12	70351	17.8005	3
12	70384	17.808798	2
12	70673	17.90056	3
12	70706	17.908858	2
12	71188	18.00006	3
12	71221	18.008358	2
12	71510	18.1	3
12	71543	18.108298	2
12	71832	18.20058	3
12	71865	18.208878	2
12	71908	18.30002	3
12	71941	18.308318	2
12	72230	18.40022	3
12	72263	18.408518	2
12	72552	18.50044	3
12	72585	18.508738	2
12	72874	18.60032	3
12	72907	18.608618	2
12	73196	18.7006	3
12	73229	18.708898	2
12	73679	18.8	3
12	73712	18.808298	2
12	74001	18.90036	3
12	74034	18.908658	2
12	74356	19.00004	3
12	74389	19.008338	2
12	74679	19.10026	3
12	74712	19.108558	2
12	75001	19.20028	3
12	75034	19.208578	2
12	75324	19.30056	3
12	75357	19.308858	2
12	75647	19.40028	3
12	75680	19.408578	2
12	75888	19.50012	3
12	75921	19.508418	2
12	76371	19.60058	3
12	76404	19.608878	2
12	76854	19.70018	3
12	76887	19.708478	2
12	77337	19.80058	3
12	77370	19.808878	2
12	77659	19.90036	3
12	77692	19.908658	2
12	78013	20.00006	3
12	78046	20.008358	2
12	78335	20.10042	3
12	78368	20.108718	2
12	78657	20.20014	3
12	78690	20.208438	2
12	78979	20.30048	3
12	79012	20.308778	2
12	79301	20.40012	3
12	79334	20.408418	2
12	79784	20.50056	3
12	79817	20.508858	2
12	80106	20.6003	3
12	80139	20.608598	2
12	80589	20.70024	3
12	80622	20.708538	2
12	80913	20.80046	3
12	80946	20.808758	2
12	81235	20.90024	3
12	81268	20.908538	2
12	81589	21.00024	3
12	81622	21.008538	2
12	82072	21.10042	3
12	82105	21.108718	2
12	82395	21.20018	3
12	82428	21.208478	2
12	82718	21.30052	3
12	82751	21.308818	2
12	83201	21.4001	3
12	83234	21.408398	2
12	83525	21.5	3
12	83558	21.508298	2
12	84008	21.60054	3
12	84041	21.608838	2
12	84330	21.70044	3
12	84363	21.708738	2
12	84652	21.80042	3
12	84685	21.808718	2
12	84974	21.90052	3
12	85007	21.908818	2
12	85489	22.0002	3
12	85522	22.008498	2
12	85972	22.10034	3
12	86005	22.108638	2
12	86294	22.2003	3
12	86327	22.208598	2
12	86616	22.30048	3
12	86649	22.308778	2
12	86938	22.40012	3
12	86971	22.408418	2
12	87260	22.50062	3
12	87293	22.508918	2
12	87582	22.60052	3
12	87615	22.608818	2
12	87906	22.70062	3
12	87939	22.708918	2
12	88228	22.80032	3
12	88261	22.808618	2
12	88711	22.90038	3
12	88744	22.908678	2
12	89065	23.00062	3
12	89098	23.008918	2
12	89549	23.10024	3
12	89582	23.108538	2
12	90032	23.20036	3
12	90065	23.208658	2
12	90355	23.30044	3
12	90388	23.308738	2
12	90839	23.4004	3
12	90873	23.408698	2
12	91162	23.50036	3
12	91195	23.508658	2
12	91484	23.60054	3
12	91517	23.608838	2
12	91806	23.70028	3
12	91839	23.708578	2
12	92128	23.8004	3
12	92161	23.808698	2
12	92450	23.9004	3
12	92483	23.908698	2
12	92804	24.00062	3
12	92837	24.008918	2
12	93289	24.10032	3
12	93322	24.108618	2
12	93611	24.20022	3
12	93644	24.208518	2
12	93933	24.30034	3
12	93966	24.308638	2
12	94255	24.40042	3
12	94288	24.408718	2
12	94577	24.5	3
12	94610	24.508298	2
12	95060	24.60006	3
12	95093	24.608358	2
12	95382	24.7006	3
12	95415	24.708898	2
12	95704	24.80044	3
12	95737	24.808738	2
12	95780	24.9001	3
12	95813	24.908398	2
12	96135	25.00048	3
12	96168	25.008778	2
12	96457	25.10026	3
12	96490	25.108558	2
12	96941	25.20062	3
12	96974	25.208918	2
12	97425	25.30028	3
12	97458	25.308578	2
12	97911	25.40002	3
12	97944	25.408318	2
12	98394	25.50014	3
12	98427	25.508438	2
12	98716	25.60056	3
12	98749	25.608858	2
12	99038	25.70024	3
12	99071	25.708538	2
12	99521	25.80058	3
12	99554	25.808878	2
12	99843	25.9	3
12	99876	25.908298	2
12	100358	26.0002	3
12	100391	26.008498	2
12	100680	26.10058	3
12	100713	26.108878	2
12	101002	26.2002	3
12	101035	26.208498	2
12	101324	26.30002	3
12	101357	26.308318	2
12	101646	26.40014	3
12	101679	26.408438	2
12	101968	26.5004	3
12	102001	26.508698	2
12	102451	26.60038	3
12	102484	26.608678	2
12	102773	26.70048	3
12	102806	26.708778	2
12	103256	26.80044	3
12	103289	26.808738	2
12	103579	26.90048	3
12	103612	26.908778	2
12	103933	27.00018	3
12	103966	27.008478	2
12	104256	27.10008	3
12	104289	27.108378	2
12	104578	27.20042	3
12	104611	27.208718	2
12	104901	27.30038	3
12	104935	27.308678	2
12	105226	27.40044	3
12	105259	27.408738	2
12	105548	27.50022	3
12	105581	27.508518	2
12	106031	27.60028	3
12	106064	27.608578	2
12	106107	27.70014	3
12	106140	27.708438	2
12	106183	27.8001	3
12	106216	27.808398	2
12	106505	27.90048	3
12	106538	27.908778	2
12	106859	28.00058	3
12	106892	28.008878	2
12	107181	28.10046	3
12	107214	28.108758	2
12	107503	28.2	3
12	107536	28.208298	2
12	107825	28.30058	3
12	107858	28.308878	2
12	108147	28.40056	3
12	108180	28.408858	2
12	108469	28.50046	3
12	108502	28.508758	2
12	108952	28.60052	3
12	108985	28.608818	2
12	109274	28.7003	3
12	109307	28.708598	2
12	109599	28.80022	3
12	109632	28.808518	2
12	109921	28.9	3
12	109954	28.908298	2
12	110275	29.00022	3
12	110308	29.008518	2
12	110759	29.10026	3
12	110792	29.108558	2
12	111081	29.2001	3
12	111114	29.208398	2
12	111405	29.3004	3
12	111438	29.308698	2
12	111888	29.4002	3
12	111921	29.408498	2
12	112210	29.5	3
12	112243	29.508298	2
12	112532	29.60002	3
12	112565	29.608318	2
12	112854	29.70034	3
12	112887	29.708638	2
12	113176	29.8005	3
12	113209	29.808798	2
12	113252	29.9004	3
12	113285	29.908698	2
12	113606	30.00046	3
12	113639	30.008758	2
12	113928	30.10026	3
12	113961	30.108558	2
12	114250	30.20048	3
12	114283	30.208778	2
12	114572	30.30026	3
12	114605	30.308558	2
12	114894	30.40032	3
12	114927	30.408618	2
12	115133	30.50058	3
12	115166	30.508878	2
12	115211	30.60044	3
12	115244	30.608738	2
12	115534	30.70006	3
12	115567	30.708358	2
12	115856	30.80062	3
12	115889	30.808918	2
12	116178	30.90032	3
12	116211	30.908618	2
12	116533	31.00018	3
12	116566	31.008478	2
12	116855	31.10048	3
12	116888	31.108778	2
12	117338	31.20026	3
12	117372	31.208558	2
12	117662	31.3006	3
12	117695	31.308898	2
12	118147	31.40018	3
12	118180	31.408478	2
12	118469	31.50052	3
12	118502	31.508818	2
12	118545	31.60048	3
12	118578	31.608778	2
12	118867	31.70032	3
12	118900	31.708618	2
12	119189	31.80054	3
12	119222	31.808838	2
12	119511	31.90052	3
12	119544	31.908818	2
12	120026	32.00024	3
12	120059	32.008538	2
12	120509	32.10012	3
12	120542	32.108418	2
12	120831	32.2004	3
12	120864	32.208698	2
12	121153	32.30018	3
12	121186	32.308478	2
12	121475	32.4002	3
12	121508	32.408498	2
12	121797	32.5003	3
12	121830	32.508598	2
12	122120	32.60038	3
12	122153	32.608678	2
12	122442	32.70002	3
12	122475	32.708318	2
12	122764	32.80004	3
12	122797	32.808338	2
12	123087	32.90012	3
12	123120	32.908418	2
12	123195	33.00032	3
12	123228	33.008618	2
12	123517	33.10006	3
12	123550	33.108358	2
12	123843	33.20014	3
12	123876	33.208438	2
12	124165	33.30026	3
12	124198	33.308558	2
12	124648	33.40026	3
12	124681	33.408558	2
12	125131	33.50014	3
12	125164	33.508438	2
12	125614	33.60048	3
12	125647	33.608778	2
12	125936	33.70054	3
12	125969	33.708838	2
12	126012	33.80062	3
12	126045	33.808918	2
12	126334	33.90034	3
12	126367	33.908638	2
12	126688	34.0001	3
12	126721	34.008398	2
12	127012	34.10018	3
12	127045	34.108478	2
12	127334	34.20058	3
12	127367	34.208878	2
12	127656	34.30038	3
12	127689	34.308678	2
12	128139	34.40056	3
12	128172	34.408858	2
12	128623	34.5002	3
12	128656	34.508498	2
12	128945	34.60054	3
12	128978	34.608838	2
12	129267	34.70036	3
12	129300	34.708658	2
12	129589	34.80044	3
12	129622	34.808738	2
12	130073	34.90048	3
12	130106	34.908778	2
12	130427	35.00048	3
12	130460	35.008778	2
12	130749	35.10024	3
12	130783	35.108538	2
12	131073	35.20028	3
12	131106	35.208578	2
12	131395	35.30052	3
12	131428	35.308818	2
12	131717	35.40034	3
12	131750	35.408638	2
12	132200	35.50034	3
12	132233	35.508638	2
12	132524	35.60048	3
12	132557	35.608778	2
12	133007	35.70004	3
12	133040	35.708338	2
12	133329	35.80054	3
12	133362	35.808838	2
12	133812	35.90028	3
12	133845	35.908578	2
12	134166	36.00046	3
12	134199	36.008758	2
12	134649	36.1006	3
12	134682	36.108898	2
12	134971	36.2005	3
12	135004	36.208798	2
12	135293	36.30014	3
12	135326	36.308438	2
12	135777	36.4004	3
12	135810	36.408698	2
12	136099	36.50018	3
12	136132	36.508478	2
12	136582	36.60056	3
12	136615	36.608858	2
12	136904	36.70056	3
12	136937	36.708858	2
12	137227	36.80046	3
12	137260	36.808758	2
12	137549	36.90006	3
12	137582	36.908358	2
12	137903	37.00022	3
12	137936	37.008518	2
12	138227	37.10042	3
12	138260	37.108718	2
12	138549	37.2002	3
12	138582	37.208498	2
12	138871	37.30006	3
12	138904	37.308358	2
12	139193	37.40048	3
12	139226	37.408778	2
12	139434	37.50044	3
12	139467	37.508738	2
12	139756	37.60046	3
12	139789	37.608758	2
12	140078	37.70016	3
12	140111	37.708458	2
12	140400	37.80044	3
12	140433	37.808738	2
12	140722	37.90028	3
12	140755	37.908578	2
12	141237	38.00038	3
12	141270	38.008678	2
12	141559	38.10014	3
12	141592	38.108438	2
12	142042	38.20048	3
12	142075	38.208778	2
12	142526	38.30054	3
12	142559	38.308838	2
12	143009	38.40046	3
12	143042	38.408758	2
12	143492	38.5002	3
12	143525	38.508498	2
12	143977	38.6003	3
12	144010	38.608598	2
12	144460	38.70036	3
12	144493	38.708658	2
12	144783	38.80014	3
12	144816	38.808438	2
12	145105	38.9005	3
12	145138	38.908798	2
12	145459	39.00056	3
12	145493	39.008858	2
12	145783	39.1	3
12	145816	39.108298	2
12	146105	39.20018	3
12	146138	39.208478	2
12	146427	39.3004	3
12	146460	39.308698	2
12	146749	39.40042	3
12	146782	39.408718	2
12	147071	39.50038	3
12	147104	39.508678	2
12	147393	39.6005	3
12	147426	39.608798	2
12	147715	39.70058	3
12	147748	39.708878	2
12	148198	39.80054	3
12	148231	39.808838	2
12	148520	39.9006	3
12	148553	39.908898	2
12	148874	40.00046	3
12	148907	40.008758	2
12	149196	40.10016	3
12	149229	40.108458	2
12	149519	40.2002	3
12	149552	40.208498	2
12	149841	40.30016	3
12	149874	40.308458	2
12	150324	40.4001	3
12	150357	40.408398	2
12	150647	40.50052	3
12	150680	40.508818	2
12	150970	40.60018	3
12	151003	40.608478	2
12	151293	40.7006	3
12	151326	40.708898	2
12	151615	40.8002	3
12	151648	40.808498	2
12	151937	40.90016	3
12	151970	40.908458	2
12	152293	41.00056	3
12	152326	41.008858	2
12	152615	41.10044	3
12	152648	41.108738	2
12	153098	41.20052	3
12	153131	41.208818	2
12	153420	41.30022	3
12	153453	41.308518	2
12	153742	41.40038	3
12	153775	41.408678	2
12	154064	41.5003	3
12	154097	41.508598	2
12	154547	41.60016	3
12	154580	41.608458	2
12	155030	41.70048	3
12	155063	41.708778	2
12	155352	41.80036	3
12	155385	41.808658	2
12	155674	41.90046	3
12	155707	41.908758	2
12	156028	42.00028	3
12	156061	42.008578	2
12	156512	42.10038	3
12	156545	42.108678	2
12	156995	42.20008	3
12	157028	42.208378	2
12	157317	42.30036	3
12	157350	42.308658	2
12	157641	42.40052	3
12	157674	42.408818	2
12	157963	42.5006	3
12	157996	42.508898	2
12	158286	42.60018	3
12	158319	42.608478	2
12	158608	42.70024	3
12	158641	42.708538	2
12	158930	42.8001	3
12	158963	42.808398	2
12	159252	42.90014	3
12	159285	42.908438	2
12	159608	43.0002	3
12	159641	43.008498	2
12	159930	43.10014	3
12	159963	43.108438	2
12	160252	43.20036	3
12	160285	43.208658	2
12	160574	43.30052	3
12	160607	43.308818	2
12	161057	43.40006	3
12	161090	43.408358	2
12	161540	43.50044	3
12	161573	43.508738	2
12	161862	43.6006	3
12	161895	43.608898	2
12	162184	43.70012	3
12	162217	43.708418	2
12	162506	43.80052	3
12	162539	43.808818	2
12	162989	43.90054	3
12	163022	43.908838	2
12	163344	44.00032	3
12	163377	44.008618	2
12	163827	44.10016	3
12	163860	44.108458	2
12	164151	44.2006	3
12	164184	44.208898	2
12	164473	44.3005	3
12	164506	44.308798	2
12	164549	44.40062	3
12	164582	44.408918	2
12	164871	44.50006	3
12	164904	44.508358	2
12	165355	44.60032	3
12	165388	44.608618	2
12	165677	44.70014	3
12	165710	44.708438	2
12	166160	44.80026	3
12	166193	44.808558	2
12	166237	44.90036	3
12	166271	44.908658	2
12	166592	45.00034	3
12	166625	45.008638	2
12	166914	45.10032	3
12	166947	45.108618	2
12	167236	45.20034	3
12	167269	45.208638	2
12	167719	45.3001	3
12	167752	45.308398	2
12	168041	45.40028	3
12	168074	45.408578	2
12	168363	45.5006	3
12	168396	45.508898	2
12	168846	45.6	3
12	168879	45.608298	2
12	169168	45.7002	3
12	169201	45.708498	2
12	169651	45.80042	3
12	169684	45.808718	2
12	170135	45.90058	3
12	170168	45.908878	2
12	170650	46.00032	3
12	170683	46.008618	2
12	170974	46.10024	3
12	171007	46.108538	2
12	171296	46.2003	3
12	171329	46.208598	2
12	171618	46.30026	3
12	171651	46.308558	2
12	172101	46.40024	3
12	172134	46.408538	2
12	172423	46.50002	3
12	172456	46.508318	2
12	172746	46.60006	3
12	172779	46.608358	2
12	173068	46.7006	3
12	173102	46.708898	2
12	173392	46.80006	3
12	173425	46.808358	2
12	173875	46.9006	3
12	173908	46.908898	2
12	174390	47.00004	3
12	174423	47.008338	2
12	174873	47.10006	3
12	174906	47.108358	2
12	175356	47.2	3
12	175389	47.208298	2
12	175678	47.30058	3
12	175711	47.308878	2
12	176000	47.40062	3
12	176033	47.408918	2
12	176322	47.50008	3
12	176355	47.508378	2
12	176644	47.6004	3
12	176677	47.608698	2
12	176966	47.70052	3
12	176999	47.708818	2
12	177450	47.80028	3
12	177483	47.808578	2
12	177772	47.9001	3
12	177805	47.908398	2
12	178289	48.00006	3
12	178322	48.008358	2
12	178611	48.10036	3
12	178644	48.108658	2
12	178933	48.20032	3
12	178966	48.208618	2
12	179255	48.30036	3
12	179288	48.308658	2
12	179738	48.4006	3
12	179771	48.408898	2
12	180060	48.50036	3
12	180093	48.508658	2
12	180383	48.60008	3
12	180417	48.608378	2
12	180707	48.70022	3
12	180740	48.708518	2
12	181029	48.80012	3
12	181062	48.808418	2
12	181351	48.90056	3
12	181384	48.908858	2
12	181705	49.0002	3
12	181738	49.008498	2
12	182027	49.10008	3
12	182060	49.108378	2
12	182349	49.20012	3
12	182382	49.208418	2
12	182832	49.30054	3
12	182865	49.308838	2
12	183071	49.40002	3
12	183104	49.408318	2
12	183393	49.5005	3
12	183426	49.508798	2
12	183715	49.6003	3
12	183748	49.608598	2
12	184038	49.7004	3
12	184071	49.708698	2
12	184360	49.80014	3
12	184393	49.808438	2
12	184843	49.90008	3
12	184876	49.908378	2
12	185360	50.00054	3
12	185393	50.008838	2
12	185843	50.1002	3
12	185876	50.108498	2
12	186165	50.20062	3
12	186198	50.208918	2
12	186487	50.30014	3
12	186520	50.308438	2
12	186970	50.40012	3
12	187003	50.408418	2
12	187293	50.50024	3
12	187326	50.508538	2
12	187616	50.6002	3
12	187649	50.608498	2
12	187939	50.70024	3
12	187972	50.708538	2
12	188261	50.80058	3
12	188294	50.808878	2
12	188583	50.90042	3
12	188616	50.908718	2
12	188937	51.0005	3
12	188970	51.008798	2
12	189420	51.1001	3
12	189453	51.108398	2
12	189742	51.2003	3
12	189775	51.208598	2
12	190064	51.3001	3
12	190097	51.308398	2
12	190547	51.40036	3
12	190580	51.408658	2
12	190869	51.50002	3
12	190902	51.508318	2
12	191192	51.60052	3
12	191225	51.608818	2
12	191514	51.70054	3
12	191547	51.708838	2
12	191753	51.80008	3
12	191786	51.808378	2
12	192076	51.90048	3
12	192109	51.908778	2
12	192431	52.00016	3
12	192464	52.008458	2
12	192753	52.10062	3
12	192786	52.108918	2
12	193075	52.20048	3
12	193108	52.208778	2
12	193558	52.30062	3
12	193591	52.308918	2
12	193880	52.40008	3
12	193913	52.408378	2
12	194203	52.50018	3
12	194236	52.508478	2
12	194527	52.60012	3
12	194560	52.608418	2
12	194849	52.70016	3
12	194882	52.708458	2
12	195171	52.80002	3
12	195204	52.808318	2
12	195493	52.90022	3
12	195526	52.908518	2
12	196008	53.00058	3
12	196041	53.008878	2
12	196330	53.10042	3
12	196363	53.108718	2
12	196813	53.20016	3
12	196846	53.208458	2
12	197135	53.30006	3
12	197168	53.308358	2
12	197459	53.4006	3
12	197492	53.408898	2
12	197782	53.5003	3
12	197815	53.508598	2
12	198104	53.60006	3
12	198137	53.608358	2
12	198426	53.70028	3
12	198459	53.708578	2
12	198748	53.80006	3
12	198781	53.808358	2
12	199070	53.9	3
12	199103	53.908298	2
12	199424	54.00042	3
12	199457	54.008718	2
12	199746	54.10044	3
12	199779	54.108738	2
12	200229	54.20022	3
12	200262	54.208518	2
12	200551	54.30022	3
12	200584	54.308518	2
12	200874	54.40024	3
12	200907	54.408538	2
12	201197	54.50006	3
12	201230	54.508358	2
12	201520	54.6001	3
12	201553	54.608398	2
12	202003	54.70022	3
12	202036	54.708518	2
12	202325	54.80042	3
12	202358	54.808718	2
12	202647	54.90062	3
12	202680	54.908918	2
12	203001	55.00032	3
12	203034	55.008618	2
12	203323	55.10032	3
12	203356	55.108618	2
12	203647	55.20018	3
12	203680	55.208478	2
12	204130	55.3	3
12	204163	55.308298	2
12	204614	55.4002	3
12	204647	55.408498	2
12	205097	55.50046	3
12	205130	55.508758	2
12	205580	55.60062	3
12	205613	55.608918	2
12	205902	55.70006	3
12	205935	55.708358	2
12	206385	55.80002	3
12	206418	55.808318	2
12	206707	55.90006	3
12	206740	55.908358	2
12	207061	56.00024	3
12	207094	56.008538	2
12	207383	56.10022	3
12	207416	56.108518	2
12	207705	56.20018	3
12	207738	56.208478	2
12	208027	56.30044	3
12	208060	56.308738	2
12	208351	56.40024	3
12	208384	56.408538	2
12	208673	56.50018	3
12	208707	56.508478	2
12	208996	56.6006	3
12	209029	56.608898	2
12	209320	56.70004	3
12	209353	56.708338	2
12	209642	56.80046	3
12	209675	56.808758	2
12	210125	56.90024	3
12	210158	56.908538	2
12	210479	57.00054	3
12	210512	57.008838	2
12	210801	57.10004	3
12	210834	57.108338	2
12	211123	57.20042	3
12	211156	57.208718	2
12	211607	57.30056	3
12	211640	57.308858	2
12	211929	57.40048	3
12	211962	57.408778	2
12	212412	57.50006	3
12	212445	57.508358	2
12	212895	57.60008	3
12	212928	57.608378	2
12	213378	57.7001	3
12	213411	57.708398	2
12	213863	57.80032	3
12	213896	57.808618	2
12	214185	57.90054	3
12	214218	57.908838	2
12	214539	58.00002	3
12	214572	58.008318	2
12	214861	58.1	3
12	214894	58.108298	2
12	215183	58.20024	3
12	215216	58.208538	2
12	215668	58.30018	3
12	215701	58.308478	2
12	215990	58.40016	3
12	216023	58.408458	2
12	216474	58.5	3
12	216507	58.508298	2
12	216796	58.60046	3
12	216829	58.608758	2
12	217118	58.70054	3
12	217151	58.708838	2
12	217440	58.80052	3
12	217473	58.808818	2
12	217762	58.9003	3
12	217795	58.908598	2
12	218277	59.00002	3
12	218310	59.008318	2
12	218599	59.10018	3
12	218632	59.108478	2
12	218922	59.20052	3
12	218955	59.208818	2
12	219405	59.30052	3
12	219438	59.308818	2
12	219727	59.40052	3
12	219760	59.408818	2
12	220049	59.50024	3
12	220082	59.508538	2
12	220371	59.60008	3
12	220404	59.608378	2
12	220855	59.70014	3
12	220888	59.708438	2
12	221178	59.80044	3
12	221211	59.808738	2
12	221661	59.9005	3
12	221694	59.908798	2
12	222176	60	3
13	0	0	1
13	108	0.103459153334	0
13	141	0.103949153334	1
13	204	0.104700733732	3
13	267	0.105190733732	1
13	310	0.105271067376	3
13	372	0.105761067376	1
13	405	0.10594208216	3
13	454	0.10643208216	1
13	469	0.106432179705	3
13	539	0.106922179705	1
13	582	0.106982408852	3
13	620	0.107472408852	1
13	681	0.109432277803	3
13	725	0.109922277803	1
13	780	0.423233007242	0
13	813	0.423723007242	1
13	871	0.423991350143	3
13	919	0.424481350143	1
13	947	0.424482003184	3
13	1023	0.424972003184	1
13	1068	0.425373125712	3
13	1132	0.425863125712	1
13	1420	0.427504556296	3
13	1514	0.427994556296	1
13	1604	0.428196446498	2
13	1650	0.428505888367	1
13	1732	0.428746596951	2
13	1809	0.429236596951	1
13	1838	0.429296764323	2
13	1900	0.429786764323	1
13	1960	0.429826775714	3
13	2069	0.430316775714	1
13	2140	0.430497697507	3
13	2272	0.430987697507	1
13	2865	0.903701717429	0
13	2898	0.904191717429	1
13	2958	0.904749220893	3
13	3004	0.905239220893	1
13	3044	0.905319782916	3
13	3088	0.905809782916	1
13	3131	0.906290012063	3
13	3171	0.906780012063	1
13	3219	0.906780801072	3
13	3300	0.907270801072	1
13	3349	0.907514393574	2
13	3432	0.908004393574	1
13	3458	0.908064417271	3
13	3517	0.908554417271	1
13	3589	0.90897527334	3
13	3719	0.90946527334	1
13	3865	0.910248526119	2
13	3909	0.910626359498	1
13	4018	0.911218526457	2
13	4129	0.911708526457	1
13	5992	1.544760221974	0
13	6025	1.545250221974	1
13	6088	1.545386923272	3
13	6147	1.545876923272	1
13	6198	1.546066435519	2
13	6275	1.546556435519	1
13	6447	1.547677078842	3
13	6568	1.548167078842	1
13	6626	1.548288495561	2
13	6686	1.548471917644	1
13	6722	1.548572817358	2
13	6755	1.548778495561	1
13	6796	1.549039204087	2
13	6940	1.549529204087	1
13	7026	1.549649634538	3
13	7130	1.550139634538	1
13	7264	1.55024311979	3
13	7357	1.55073311979	1
13	7462	1.550874041583	3
13	7570	1.551364041583	1
13	8050	1.552949389513	3
13	8177	1.553439389513	1
13	9074	1.568573929995	2
13	9123	1.569031929995	1
13	9152	1.572743108999	3
13	9193	1.573201108999	1
13	9235	1.573361108999	0
13	9271	1.581659108999	1
13	9311	1.581759108999	0
13	9345	1.590057108999	1
13	9346	1.590057108999	0
13	9419	1.598355108999	1
13	9470	1.598796465363	3
13	9518	1.607094465363	1
13	9543	1.607334465363	0
13	9577	1.615632465363	1
13	9628	1.615933821727	3
13	9672	1.624231821727	1
13	9708	1.624291821727	3
13	9752	1.632589821727	1
13	9777	1.632709821727	0
13	9811	1.641007821727	1
13	9851	1.641087821727	0
13	9885	1.649385821727	1
13	9943	1.649507834481	2
13	9993	1.657805834481	1
13	10008	1.657825834481	0
13	10075	1.666123834481	1
13	10113	1.666663834481	0
13	10193	1.674961834481	1
13	10242	1.674983190845	3
13	10287	1.683281190845	1
13	10330	1.683381870932	2
13	10380	1.691679870932	1
13	10423	1.691879870932	2
13	10426	1.691879894629	3
13	10510	1.700177894629	1
13	10546	1.700197894629	0
13	10613	1.708495894629	1
13	10651	1.708775894629	0
13	10732	1.717073894629	1
13	10733	1.717073894629	0
13	10805	1.725371894629	1
13	10856	1.725493250993	3
13	10900	1.733791250993	1
13	10936	1.733891250993	3
13	10980	1.742189250993	1
13	11005	1.742329250993	0
13	11039	1.750627250993	1
13	11040	1.750627250993	0
13	11113	1.758925250993	1
13	11164	1.759006607357	3
13	11208	1.767304607357	1
13	11251	1.767385287444	2
13	11301	1.775683287444	1
13	11349	1.776003287444	0
13	11430	1.784301287444	1
13	11485	1.784383300198	2
13	11535	1.792681300198	1
13	11568	1.792761300198	2
13	11623	1.801059300198	1
13	11638	1.801399300198	0
13	11705	1.809697300198	1
13	11822	1.810197300198	0
13	11903	1.818495300198	1
13	11951	1.818876656562	3
13	11996	1.827174656562	1
13	12021	1.827234656562	0
13	12056	1.835532656562	1
13	12107	1.835854012926	3
13	12151	1.844152012926	1
13	12194	1.844292693013	2
13	12244	1.852590693013	1
13	12277	1.852750693013	2
13	12327	1.861048693013	1
13	12342	1.861168693013	0
13	12409	1.869466693013	1
13	12590	1.877885940313	2
13	12643	1.886183940313	1
13	12779	1.90052	0
13	12891	1.908818	1
13	13014	2.00002	0
13	13047	2.008318	1
13	13098	2.008639356364	3
13	13141	2.016937356364	1
13	13184	2.017258036451	2
13	13234	2.025556036451	1
13	13336	2.10046	0
13	13369	2.108758	1
13	13420	2.108979356364	3
13	13464	2.117277356364	1
13	13507	2.117838036451	2
13	13557	2.126136036451	1
13	13659	2.2001	0
13	13692	2.208398	1
13	13743	2.208939356364	3
13	13786	2.217237356364	1
13	13829	2.217398036451	2
13	13879	2.225696036451	1
13	13981	2.30024	0
13	14014	2.308538	1
13	14057	2.40032	0
13	14090	2.408618	1
13	14141	2.408899356364	3
13	14187	2.417197356364	1
13	14214	2.417198036451	2
13	14283	2.425496036451	1
13	14404	2.50008	0
13	14437	2.508378	1
13	14488	2.508579356364	3
13	14531	2.516877356364	1
13	14574	2.517458036451	2
13	14624	2.525756036451	1
13	14726	2.60004	0
13	14759	2.608338	1
13	14810	2.608639356364	3
13	14853	2.616937356364	1
13	14896	2.617078036451	2
13	14946	2.625376036451	1
13	15048	2.70038	0
13	15081	2.708678	1
13	15132	2.708819356364	3
13	15175	2.717117356364	1
13	15218	2.717418036451	2
13	15268	2.725716036451	1
13	15370	2.80046	0
13	15403	2.808758	1
13	15454	2.809099356364	3
13	15497	2.817397356364	1
13	15540	2.817658036451	2
13	15590	2.825956036451	1
13	15692	2.9	0
13	15744	2.908298	1
13	15795	2.908379356364	3
13	15875	2.916677356364	1
13	15918	2.916878036451	2
13	15983	2.925176036451	1
13	16117	3.00004	0
13	16150	3.008338	1
13	16201	3.008639356364	3
13	16244	3.016937356364	1
13	16287	3.017518036451	2
13	16337	3.025816036451	1
13	16439	3.10058	0
13	16472	3.108878	1
13	16515	3.20008	0
13	16548	3.208378	1
13	16599	3.208739356364	3
13	16642	3.217037356364	1
13	16685	3.217238036451	2
13	16735	3.225536036451	1
13	16998	3.30036	0
13	17031	3.308658	1
13	17082	3.309139356364	3
13	17125	3.317437356364	1
13	17168	3.317738036451	2
13	17218	3.326036036451	1
13	17320	3.40034	0
13	17353	3.408638	1
13	17404	3.408939356364	3
13	17447	3.417237356364	1
13	17490	3.417278036451	2
13	17538	3.425576036451	1
13	17559	3.5002	0
13	17592	3.508498	1
13	17643	3.508579356364	3
13	17686	3.516877356364	1
13	17729	3.517458036451	2
13	17779	3.525756036451	1
13	18046	3.60054	0
13	18079	3.608838	1
13	18130	3.609339356364	3
13	18173	3.617637356364	1
13	18216	3.618218036451	2
13	18266	3.626516036451	1
13	18368	3.70028	0
13	18401	3.708578	1
13	18452	3.708599356364	3
13	18495	3.716897356364	1
13	18538	3.717238036451	2
13	18588	3.725536036451	1
13	18690	3.80054	0
13	18723	3.808838	1
13	18774	3.809299356364	3
13	18817	3.817597356364	1
13	18860	3.817778036451	2
13	18910	3.826076036451	1
13	19012	3.90062	0
13	19045	3.908918	1
13	19096	3.909199356364	3
13	19139	3.917497356364	1
13	19182	3.917698036451	2
13	19232	3.925996036451	1
13	19366	4.00042	0
13	19399	4.008718	1
13	19450	4.009219356364	3
13	19493	4.017517356364	1
13	19536	4.017598036451	2
13	19586	4.025896036451	1
13	19688	4.10022	0
13	19721	4.108518	1
13	19772	4.108619356364	3
13	19815	4.116917356364	1
13	19858	4.117078036451	2
13	19908	4.125376036451	1
13	20010	4.20032	0
13	20043	4.208618	1
13	20086	4.30034	0
13	20119	4.308638	1
13	20170	4.308859356364	3
13	20213	4.317157356364	1
13	20256	4.317698036451	2
13	20306	4.325996036451	1
13	20569	4.40008	0
13	20602	4.408378	1
13	20653	4.408599356364	3
13	20699	4.416897356364	1
13	20726	4.416898036451	2
13	20789	4.425196036451	1
13	21052	4.5002	0
13	21085	4.508498	1
13	21136	4.509019356364	3
13	21179	4.517317356364	1
13	21222	4.517518036451	2
13	21272	4.525816036451	1
13	21374	4.60052	0
13	21407	4.608818	1
13	21458	4.609119356364	3
13	21501	4.617417356364	1
13	21544	4.617438036451	2
13	21594	4.625736036451	1
13	21696	4.70022	0
13	21729	4.708518	1
13	21780	4.709059356364	3
13	21826	4.717357356364	1
13	21853	4.717358036451	2
13	21916	4.725656036451	1
13	22018	4.80026	0
13	22051	4.808558	1
13	22102	4.808959356364	3
13	22145	4.817257356364	1
13	22188	4.817758036451	2
13	22238	4.826056036451	1
13	22340	4.90048	0
13	22373	4.908778	1
13	22424	4.909199356364	3
13	22467	4.917497356364	1
13	22510	4.917918036451	2
13	22562	4.926216036451	1
13	22696	5.00062	0
13	22729	5.008918	1
13	22780	5.009259356364	3
13	22823	5.017557356364	1
13	22866	5.017598036451	2
13	22916	5.025896036451	1
13	23179	5.10016	0
13	23212	5.108458	1
13	23263	5.108959356364	3
13	23306	5.117257356364	1
13	23349	5.117758036451	2
13	23399	5.126056036451	1
13	23501	5.20058	0
13	23534	5.208878	1
13	23579	5.3002	0
13	23612	5.308498	1
13	23663	5.308659356364	3
13	23706	5.316957356364	1
13	23749	5.317398036451	2
13	23799	5.325696036451	1
13	23901	5.40014	0
13	23934	5.408438	1
13	23985	5.408459356364	3
13	24028	5.416757356364	1
13	24071	5.417038036451	2
13	24121	5.425336036451	1
13	24224	5.50056	0
13	24258	5.508858	1
13	24309	5.509099356364	3
13	24353	5.517397356364	1
13	24396	5.517498036451	2
13	24447	5.525796036451	1
13	24549	5.60014	0
13	24582	5.608438	1
13	24633	5.608739356364	3
13	24676	5.617037356364	1
13	24719	5.617598036451	2
13	24769	5.625896036451	1
13	24871	5.7006	0
13	24904	5.708898	1
13	24955	5.709419356364	3
13	24998	5.717717356364	1
13	25041	5.717838036451	2
13	25091	5.726136036451	1
13	25193	5.80016	0
13	25226	5.808458	1
13	25277	5.808959356364	3
13	25320	5.817257356364	1
13	25363	5.817358036451	2
13	25413	5.825656036451	1
13	25676	5.90054	0
13	25709	5.908838	1
13	25760	5.908879356364	3
13	25803	5.917177356364	1
13	25846	5.917658036451	2
13	25896	5.925956036451	1
13	26030	6	0
13	26063	6.008298	1
13	26114	6.008539356364	3
13	26157	6.016837356364	1
13	26200	6.017118036451	2
13	26250	6.025416036451	1
13	26513	6.10052	0
13	26546	6.108818	1
13	26597	6.109359356364	3
13	26640	6.117657356364	1
13	26683	6.117758036451	2
13	26733	6.126056036451	1
13	26996	6.20054	0
13	27029	6.208838	1
13	27080	6.209139356364	3
13	27123	6.217437356364	1
13	27166	6.217978036451	2
13	27216	6.226276036451	1
13	27318	6.30008	0
13	27351	6.308378	1
13	27402	6.308799356364	3
13	27445	6.317097356364	1
13	27488	6.317218036451	2
13	27538	6.325516036451	1
13	27640	6.4002	0
13	27673	6.408498	1
13	27724	6.408659356364	3
13	27767	6.416957356364	1
13	27810	6.417138036451	2
13	27860	6.425436036451	1
13	27962	6.50044	0
13	27995	6.508738	1
13	28046	6.508979356364	3
13	28089	6.517277356364	1
13	28132	6.517838036451	2
13	28182	6.526136036451	1
13	28284	6.60028	0
13	28317	6.608578	1
13	28368	6.608599356364	3
13	28411	6.616897356364	1
13	28454	6.617018036451	2
13	28504	6.625316036451	1
13	28609	6.7003	0
13	28642	6.708598	1
13	28693	6.708619356364	3
13	28736	6.716917356364	1
13	28779	6.716998036451	2
13	28829	6.725296036451	1
13	29097	6.8005	0
13	29130	6.808798	1
13	29181	6.808899356364	3
13	29224	6.817197356364	1
13	29267	6.817818036451	2
13	29317	6.826116036451	1
13	29584	6.9002	0
13	29621	6.908498	1
13	29672	6.909039356364	3
13	29715	6.917337356364	1
13	29758	6.917738036451	2
13	29808	6.926036036451	1
13	29947	7.00024	0
13	29980	7.008538	1
13	30031	7.009039356364	3
13	30074	7.017337356364	1
13	30117	7.017578036451	2
13	30167	7.025876036451	1
13	30276	7.10046	0
13	30309	7.108758	1
13	30360	7.109119356364	3
13	30403	7.117417356364	1
13	30446	7.117538036451	2
13	30496	7.125836036451	1
13	30759	7.20034	0
13	30792	7.208638	1
13	30843	7.209179356364	3
13	30886	7.217477356364	1
13	30929	7.217558036451	2
13	30984	7.225856036451	1
13	31081	7.30056	0
13	31114	7.308858	1
13	31165	7.309359356364	3
13	31208	7.317657356364	1
13	31251	7.317878036451	2
13	31301	7.326176036451	1
13	31404	7.4002	0
13	31438	7.408498	1
13	31489	7.408939356364	3
13	31533	7.417237356364	1
13	31576	7.417798036451	2
13	31627	7.426096036451	1
13	31890	7.5006	0
13	31923	7.508898	1
13	31974	7.509319356364	3
13	32017	7.517617356364	1
[...]
207	180547	48.617077679426	3
207	180592	48.625375679426	1
207	180630	48.625636358516	3
207	180671	48.633934358516	1
207	180787	48.708839213054	3
207	180826	48.717137213054	1
207	180870	48.717477679426	3
207	180914	48.725775679426	1
207	180952	48.726276358516	3
207	180993	48.734574358516	1
207	181109	48.808899213054	3
207	181148	48.817197213054	1
207	181192	48.817537679426	3
207	181236	48.825835679426	1
207	181274	48.826176358516	3
207	181315	48.834474358516	1
207	181431	48.909379213054	3
207	181470	48.917677213054	1
207	181514	48.917877679426	3
207	181558	48.926175679426	1
207	181596	48.926316358516	3
207	181637	48.934614358516	1
207	181785	49.008659213054	3
207	181824	49.016957213054	1
207	181868	49.017537679426	3
207	181912	49.025835679426	1
207	181950	49.026216358516	3
207	181991	49.034514358516	1
207	182107	49.108799213054	3
207	182146	49.117097213054	1
207	182190	49.117557679426	3
207	182234	49.125855679426	1
207	182272	49.126196358516	3
207	182313	49.134494358516	1
207	182429	49.208499213054	3
207	182468	49.216797213054	1
207	182512	49.217237679426	3
207	182556	49.225535679426	1
207	182594	49.225996358516	3
207	182635	49.234294358516	1
207	182912	49.309179213054	3
207	182951	49.317477213054	1
207	182995	49.317837679426	3
207	183037	49.326135679426	1
207	183151	49.408659213054	3
207	183190	49.416957213054	1
207	183234	49.417537679426	3
207	183278	49.425835679426	1
207	183316	49.425936358516	3
207	183357	49.434234358516	1
207	183473	49.508819213054	3
207	183512	49.517117213054	1
207	183556	49.517577679426	3
207	183600	49.525875679426	1
207	183638	49.526016358516	3
207	183679	49.534314358516	1
207	183774	49.608599213054	3
207	183834	49.616897213054	1
207	183878	49.617197679426	3
207	183922	49.625495679426	1
207	183960	49.626056358516	3
207	184001	49.634354358516	1
207	184118	49.708779213054	3
207	184157	49.717077213054	1
207	184201	49.717237679426	3
207	184245	49.725535679426	1
207	184283	49.726016358516	3
207	184324	49.734314358516	1
207	184440	49.808719213054	3
207	184479	49.817017213054	1
207	184523	49.817377679426	3
207	184567	49.825675679426	1
207	184605	49.825916358516	3
207	184646	49.834214358516	1
207	184923	49.908599213054	3
207	184962	49.916897213054	1
207	185006	49.917137679426	3
207	185050	49.925435679426	1
207	185088	49.925856358516	3
207	185130	49.934154358516	1
207	185440	50.009199213054	3
207	185479	50.017497213054	1
207	185523	50.017777679426	3
207	185567	50.026075679426	1
207	185605	50.026116358516	3
207	185646	50.034414358516	1
207	185923	50.108839213054	3
207	185962	50.117137213054	1
207	186006	50.117737679426	3
207	186050	50.126035679426	1
207	186088	50.126616358516	3
207	186129	50.134914358516	1
207	186245	50.209019213054	3
207	186284	50.217317213054	1
207	186328	50.217437679426	3
207	186372	50.225735679426	1
207	186410	50.226096358516	3
207	186451	50.234394358516	1
207	186567	50.309019213054	3
207	186606	50.317317213054	1
207	186650	50.317417679426	3
207	186694	50.325715679426	1
207	186732	50.326276358516	3
207	186773	50.334574358516	1
207	187050	50.408619213054	3
207	187089	50.416917213054	1
207	187133	50.417217679426	3
207	187177	50.425515679426	1
207	187216	50.425796358516	3
207	187257	50.434094358516	1
207	187374	50.508879213054	3
207	187413	50.517177213054	1
207	187457	50.517317679426	3
207	187501	50.525615679426	1
207	187539	50.525916358516	3
207	187580	50.534214358516	1
207	187696	50.609119213054	3
207	187736	50.617417213054	1
207	187780	50.617697679426	3
207	187826	50.625995679426	1
207	187851	50.625996358516	3
207	187903	50.634294358516	1
207	188019	50.709019213054	3
207	188058	50.717317213054	1
207	188102	50.717937679426	3
207	188146	50.726235679426	1
207	188184	50.726636358516	3
207	188225	50.734934358516	1
207	188341	50.809119213054	3
207	188380	50.817417213054	1
207	188424	50.817497679426	3
207	188468	50.825795679426	1
207	188506	50.825896358516	3
207	188547	50.834194358516	1
207	188663	50.909159213054	3
207	188702	50.917457213054	1
207	188746	50.917537679426	3
207	188790	50.925835679426	1
207	188828	50.926436358516	3
207	188869	50.934734358516	1
207	189017	51.008879213054	3
207	189056	51.017177213054	1
207	189100	51.017397679426	3
207	189144	51.025695679426	1
207	189182	51.026256358516	3
207	189223	51.034554358516	1
207	189500	51.108699213054	3
207	189539	51.116997213054	1
207	189583	51.117097679426	3
207	189627	51.125395679426	1
207	189665	51.125576358516	3
207	189706	51.133874358516	1
207	189822	51.209099213054	3
207	189861	51.217397213054	1
207	189905	51.218017679426	3
207	189949	51.226315679426	1
207	189987	51.226496358516	3
207	190028	51.234794358516	1
207	190144	51.308619213054	3
207	190183	51.316917213054	1
207	190227	51.317057679426	3
207	190271	51.325355679426	1
207	190309	51.325916358516	3
207	190350	51.334214358516	1
207	190627	51.408819213054	3
207	190666	51.417117213054	1
207	190710	51.417637679426	3
207	190754	51.425935679426	1
207	190792	51.426296358516	3
207	190833	51.434594358516	1
207	190928	51.508319213054	3
207	190988	51.516617213054	1
207	191032	51.517117679426	3
207	191076	51.525415679426	1
207	191114	51.525476358516	3
207	191155	51.533774358516	1
207	191272	51.609179213054	3
207	191311	51.617477213054	1
207	191355	51.617737679426	3
207	191401	51.626035679426	1
207	191426	51.626036358516	3
207	191478	51.634334358516	1
207	191594	51.709319213054	3
207	191633	51.717617213054	1
207	191677	51.717657679426	3
207	191719	51.725955679426	1
207	191812	51.808379213054	3
207	191872	51.816677213054	1
207	191916	51.816697679426	3
207	191960	51.824995679426	1
207	191998	51.825476358516	3
207	192039	51.833774358516	1
207	192156	51.909039213054	3
207	192195	51.917337213054	1
207	192239	51.917357679426	3
207	192283	51.925655679426	1
207	192321	51.926016358516	3
207	192362	51.934314358516	1
207	192511	52.008699213054	3
207	192550	52.016997213054	1
207	192594	52.017397679426	3
207	192638	52.025695679426	1
207	192676	52.025936358516	3
207	192717	52.034234358516	1
207	192833	52.109339213054	3
207	192874	52.117637213054	1
207	192900	52.117637679426	3
207	192960	52.125935679426	1
207	192998	52.126076358516	3
207	193039	52.134374358516	1
207	193155	52.208939213054	3
207	193194	52.217237213054	1
207	193238	52.217797679426	3
207	193282	52.226095679426	1
207	193320	52.226236358516	3
207	193361	52.234534358516	1
207	193638	52.309119213054	3
207	193677	52.317417213054	1
207	193721	52.318017679426	3
207	193765	52.326315679426	1
207	193803	52.326936358516	3
207	193844	52.335234358516	1
207	193960	52.408499213054	3
207	193999	52.416797213054	1
207	194043	52.417417679426	3
207	194088	52.425715679426	1
207	194126	52.425756358516	3
207	194167	52.434054358516	1
207	194284	52.508919213054	3
207	194324	52.517217213054	1
207	194368	52.517677679426	3
207	194412	52.525975679426	1
207	194450	52.526576358516	3
207	194491	52.534874358516	1
207	194607	52.608679213054	3
207	194646	52.616977213054	1
207	194690	52.617097679426	3
207	194734	52.625395679426	1
207	194772	52.625496358516	3
207	194813	52.633794358516	1
207	194929	52.708919213054	3
207	194968	52.717217213054	1
207	195012	52.717597679426	3
207	195056	52.725895679426	1
207	195094	52.726516358516	3
207	195135	52.734814358516	1
207	195251	52.808839213054	3
207	195290	52.817137213054	1
207	195334	52.817157679426	3
207	195378	52.825455679426	1
207	195416	52.825996358516	3
207	195457	52.834294358516	1
207	195573	52.908719213054	3
207	195612	52.917017213054	1
207	195656	52.917237679426	3
207	195700	52.925535679426	1
207	195738	52.926076358516	3
207	195779	52.934374358516	1
207	196088	53.009059213054	3
207	196127	53.017357213054	1
207	196171	53.017437679426	3
207	196215	53.025735679426	1
207	196253	53.026276358516	3
207	196294	53.034574358516	1
207	196410	53.109179213054	3
207	196449	53.117477213054	1
207	196493	53.117717679426	3
207	196537	53.126015679426	1
207	196575	53.126396358516	3
207	196616	53.134694358516	1
207	196893	53.208559213054	3
207	196932	53.216857213054	1
207	196976	53.216997679426	3
207	197020	53.225295679426	1
207	197058	53.225816358516	3
207	197099	53.234114358516	1
207	197215	53.308559213054	3
207	197254	53.316857213054	1
207	197298	53.317357679426	3
207	197342	53.325655679426	1
207	197380	53.325676358516	3
207	197421	53.333974358516	1
207	197539	53.409419213054	3
207	197578	53.417717213054	1
207	197622	53.417797679426	3
207	197666	53.426095679426	1
207	197704	53.426236358516	3
207	197745	53.434534358516	1
207	197862	53.509059213054	3
207	197901	53.517357213054	1
207	197945	53.517797679426	3
207	197989	53.526095679426	1
207	198027	53.526496358516	3
207	198068	53.534794358516	1
207	198184	53.608699213054	3
207	198223	53.616997213054	1
207	198267	53.617217679426	3
207	198311	53.625515679426	1
207	198349	53.625916358516	3
207	198390	53.634214358516	1
207	198506	53.708759213054	3
207	198545	53.717057213054	1
207	198589	53.717417679426	3
207	198633	53.725715679426	1
207	198671	53.726036358516	3
207	198712	53.734334358516	1
207	198828	53.808559213054	3
207	198867	53.816857213054	1
207	198911	53.817217679426	3
207	198955	53.825515679426	1
207	198993	53.825796358516	3
207	199034	53.834094358516	1
207	199150	53.908439213054	3
207	199189	53.916737213054	1
207	199233	53.917237679426	3
207	199277	53.925535679426	1
207	199315	53.925956358516	3
207	199356	53.934254358516	1
207	199504	54.008879213054	3
207	199543	54.017177213054	1
207	199587	54.017537679426	3
207	199631	54.025835679426	1
207	199669	54.026416358516	3
207	199710	54.034714358516	1
207	199826	54.108779213054	3
207	199865	54.117077213054	1
207	199909	54.117117679426	3
207	199953	54.125415679426	1
207	199991	54.125576358516	3
207	200032	54.133874358516	1
207	200309	54.208719213054	3
207	200348	54.217017213054	1
207	200392	54.217497679426	3
207	200436	54.225795679426	1
207	200474	54.225856358516	3
207	200515	54.234154358516	1
207	200631	54.308879213054	3
207	200670	54.317177213054	1
207	200714	54.317377679426	3
207	200758	54.325675679426	1
207	200796	54.326296358516	3
207	200838	54.334594358516	1
207	200954	54.408899213054	3
207	200994	54.417197213054	1
207	201038	54.417317679426	3
207	201082	54.425615679426	1
207	201120	54.425736358516	3
207	201161	54.434034358516	1
207	201278	54.508819213054	3
207	201317	54.517117213054	1
207	201361	54.517457679426	3
207	201405	54.525755679426	1
207	201443	54.526016358516	3
207	201484	54.534314358516	1
207	201600	54.609019213054	3
207	201639	54.617317213054	1
207	201683	54.617417679426	3
207	201727	54.625715679426	1
207	201765	54.625956358516	3
207	201806	54.634254358516	1
207	202083	54.709019213054	3
207	202122	54.717317213054	1
207	202166	54.717477679426	3
207	202210	54.725775679426	1
207	202248	54.725896358516	3
207	202289	54.734194358516	1
207	202405	54.808959213054	3
207	202444	54.817257213054	1
207	202488	54.817297679426	3
207	202532	54.825595679426	1
207	202570	54.825636358516	3
207	202611	54.833934358516	1
207	202727	54.909019213054	3
207	202766	54.917317213054	1
207	202810	54.917797679426	3
207	202856	54.926095679426	1
207	202881	54.926096358516	3
207	202933	54.934394358516	1
207	203081	55.008939213054	3
207	203120	55.017237213054	1
207	203164	55.017637679426	3
207	203208	55.025935679426	1
207	203246	55.026496358516	3
207	203287	55.034794358516	1
207	203403	55.109139213054	3
207	203442	55.117437213054	1
207	203486	55.117977679426	3
207	203530	55.126275679426	1
207	203568	55.126896358516	3
207	203610	55.135194358516	1
207	203727	55.208539213054	3
207	203766	55.216837213054	1
207	203810	55.217097679426	3
207	203854	55.225395679426	1
207	203892	55.225636358516	3
207	203933	55.233934358516	1
207	204210	55.308739213054	3
207	204249	55.317037213054	1
207	204293	55.317177679426	3
207	204339	55.325475679426	1
207	204364	55.325476358516	3
207	204416	55.333774358516	1
207	204694	55.408759213054	3
207	204733	55.417057213054	1
207	204777	55.417597679426	3
207	204821	55.425895679426	1
207	204859	55.426216358516	3
207	204900	55.434514358516	1
207	205177	55.508799213054	3
207	205216	55.517097213054	1
207	205260	55.517597679426	3
207	205304	55.525895679426	1
207	205342	55.526436358516	3
207	205383	55.534734358516	1
207	205660	55.609379213054	3
207	205699	55.617677213054	1
207	205743	55.618037679426	3
207	205787	55.626335679426	1
207	205825	55.626936358516	3
207	205866	55.635234358516	1
207	205982	55.708599213054	3
207	206021	55.716897213054	1
207	206065	55.717237679426	3
207	206109	55.725535679426	1
207	206147	55.725976358516	3
207	206188	55.734274358516	1
207	206465	55.808619213054	3
207	206504	55.816917213054	1
207	206548	55.816977679426	3
207	206592	55.825275679426	1
207	206630	55.825336358516	3
207	206671	55.833634358516	1
207	206766	55.908359213054	3
207	206826	55.916657213054	1
207	206870	55.916897679426	3
207	206914	55.925195679426	1
207	206952	55.925576358516	3
207	206993	55.933874358516	1
207	207141	56.008739213054	3
207	207180	56.017037213054	1
207	207224	56.017357679426	3
207	207268	56.025655679426	1
207	207306	56.026036358516	3
207	207347	56.034334358516	1
207	207463	56.109039213054	3
207	207502	56.117337213054	1
207	207546	56.117857679426	3
207	207590	56.126155679426	1
207	207628	56.126596358516	3
207	207669	56.134894358516	1
207	207785	56.208939213054	3
207	207826	56.217237213054	1
207	207852	56.217237679426	3
207	207912	56.225535679426	1
207	207950	56.226036358516	3
207	207991	56.234334358516	1
207	208107	56.309299213054	3
207	208147	56.317597213054	1
207	208191	56.317897679426	3
207	208236	56.326195679426	1
207	208274	56.326736358516	3
207	208315	56.335034358516	1
207	208431	56.408859213054	3
207	208470	56.417157213054	1
207	208514	56.417757679426	3
207	208558	56.426055679426	1
207	208596	56.426656358516	3
207	208637	56.434954358516	1
207	208754	56.508799213054	3
207	208793	56.517097213054	1
207	208837	56.517277679426	3
207	208881	56.525575679426	1
207	208919	56.525796358516	3
207	208960	56.534094358516	1
207	209076	56.609299213054	3
207	209117	56.617597213054	1
207	209143	56.617597679426	3
207	209203	56.625895679426	1
207	209241	56.626216358516	3
207	209283	56.634514358516	1
207	209400	56.708699213054	3
207	209441	56.716997213054	1
207	209467	56.716997679426	3
207	209527	56.725295679426	1
207	209565	56.725736358516	3
207	209606	56.734034358516	1
207	209722	56.809199213054	3
207	209761	56.817497213054	1
207	209805	56.817577679426	3
207	209849	56.825875679426	1
207	209887	56.826376358516	3
207	209928	56.834674358516	1
207	210205	56.908959213054	3
207	210244	56.917257213054	1
207	210288	56.917577679426	3
207	210332	56.925875679426	1
207	210370	56.925916358516	3
207	210411	56.934214358516	1
207	210559	57.008919213054	3
207	210598	57.017217213054	1
207	210642	57.017357679426	3
207	210686	57.025655679426	1
207	210724	57.026276358516	3
207	210765	57.034574358516	1
207	210881	57.108819213054	3
207	210920	57.117117213054	1
207	210964	57.117377679426	3
207	211008	57.125675679426	1
207	211046	57.126296358516	3
207	211087	57.134594358516	1
207	211203	57.208799213054	3
207	211242	57.217097213054	1
207	211286	57.217177679426	3
207	211330	57.225475679426	1
207	211368	57.225756358516	3
207	211409	57.234054358516	1
207	211687	57.309279213054	3
207	211726	57.317577213054	1
207	211770	57.317737679426	3
207	211814	57.326035679426	1
207	211852	57.326236358516	3
207	211893	57.334534358516	1
207	212009	57.409259213054	3
207	212048	57.417557213054	1
207	212092	57.417677679426	3
207	212136	57.425975679426	1
207	212174	57.426056358516	3
207	212215	57.434354358516	1
207	212492	57.508459213054	3
207	212531	57.516757213054	1
207	212575	57.517017679426	3
207	212619	57.525315679426	1
207	212657	57.525456358516	3
207	212698	57.533754358516	1
207	212975	57.608559213054	3
207	213014	57.616857213054	1
207	213058	57.617177679426	3
207	213102	57.625475679426	1
207	213140	57.626036358516	3
207	213181	57.634334358516	1
207	213458	57.708659213054	3
207	213497	57.716957213054	1
207	213541	57.717237679426	3
207	213585	57.725535679426	1
207	213623	57.725716358516	3
207	213664	57.734014358516	1
207	213943	57.808759213054	3
207	213982	57.817057213054	1
207	214026	57.817397679426	3
207	214070	57.825695679426	1
207	214108	57.825896358516	3
207	214149	57.834194358516	1
207	214265	57.909459213054	3
207	214304	57.917757213054	1
207	214348	57.918017679426	3
207	214392	57.926315679426	1
207	214430	57.926536358516	3
207	214471	57.934834358516	1
207	214619	58.008419213054	3
207	214658	58.016717213054	1
207	214702	58.016837679426	3
207	214746	58.025135679426	1
207	214784	58.025636358516	3
207	214825	58.033934358516	1
207	214941	58.108779213054	3
207	214980	58.117077213054	1
207	215024	58.117237679426	3
207	215068	58.125535679426	1
207	215106	58.126076358516	3
207	215147	58.134374358516	1
207	215263	58.208759213054	3
207	215302	58.217057213054	1
207	215347	58.217237679426	3
207	215392	58.225535679426	1
207	215430	58.225896358516	3
207	215471	58.234194358516	1
207	215748	58.308619213054	3
207	215787	58.316917213054	1
207	215831	58.317277679426	3
207	215875	58.325575679426	1
207	215913	58.325836358516	3
207	215954	58.334134358516	1
207	216071	58.408539213054	3
207	216110	58.416837213054	1
207	216154	58.417097679426	3
207	216198	58.425395679426	1
207	216236	58.426016358516	3
207	216277	58.434314358516	1
207	216554	58.508659213054	3
207	216593	58.516957213054	1
207	216637	58.517377679426	3
207	216681	58.525675679426	1
207	216719	58.526276358516	3
207	216760	58.534574358516	1
207	216876	58.609199213054	3
207	216915	58.617497213054	1
207	216959	58.617697679426	3
207	217003	58.625995679426	1
207	217041	58.626476358516	3
207	217082	58.634774358516	1
207	217198	58.709119213054	3
207	217237	58.717417213054	1
207	217281	58.717777679426	3
207	217325	58.726075679426	1
207	217363	58.726216358516	3
207	217404	58.734514358516	1
207	217520	58.809439213054	3
207	217559	58.817737213054	1
207	217603	58.817857679426	3
207	217647	58.826155679426	1
207	217685	58.826356358516	3
207	217726	58.834654358516	1
207	217842	58.908759213054	3
207	217881	58.917057213054	1
207	217925	58.917197679426	3
207	217969	58.925495679426	1
207	218007	58.925936358516	3
207	218048	58.934234358516	1
207	218357	59.008879213054	3
207	218396	59.017177213054	1
207	218440	59.017617679426	3
207	218484	59.025915679426	1
207	218522	59.026416358516	3
207	218563	59.034714358516	1
207	218679	59.108559213054	3
207	218718	59.116857213054	1
207	218762	59.117417679426	3
207	218806	59.125715679426	1
207	218844	59.126276358516	3
207	218885	59.134574358516	1
207	219002	59.209219213054	3
207	219041	59.217517213054	1
207	219085	59.218017679426	3
207	219129	59.226315679426	1
207	219167	59.226836358516	3
207	219208	59.235134358516	1
207	219485	59.308839213054	3
207	219524	59.317137213054	1
207	219568	59.317417679426	3
207	219612	59.325715679426	1
207	219650	59.325956358516	3
207	219691	59.334254358516	1
207	219807	59.408979213054	3
207	219846	59.417277213054	1
207	219890	59.417877679426	3
207	219934	59.426175679426	1
207	219972	59.426776358516	3
207	220013	59.435074358516	1
207	220129	59.508699213054	3
207	220168	59.516997213054	1
207	220212	59.517557679426	3
207	220256	59.525855679426	1
207	220294	59.526196358516	3
207	220335	59.534494358516	1
207	220451	59.608519213054	3
207	220490	59.616817213054	1
207	220534	59.617277679426	3
207	220580	59.625575679426	1
207	220605	59.625576358516	3
207	220657	59.633874358516	1
207	220935	59.708699213054	3
207	220974	59.716997213054	1
207	221018	59.717377679426	3
207	221062	59.725675679426	1
207	221100	59.725736358516	3
207	221142	59.734034358516	1
207	221237	59.808739213054	3
207	221297	59.817037213054	1
207	221341	59.817217679426	3
207	221385	59.825515679426	1
207	221423	59.825656358516	3
207	221464	59.833954358516	1
207	221741	59.909139213054	3
207	221780	59.917437213054	1
207	221824	59.917937679426	3
207	221868	59.926235679426	1
207	221906	59.926616358516	3
207	221947	59.934914358516	1
208	1551	0.428014866893	1
208	1552	0.428014866893	2
208	1621	0.428504866893	1
208	1621	0.428504866893	0
208	3812	0.910135338024	1
208	3813	0.910135338024	2
208	3880	0.910625338024	1
208	3880	0.910625338024	0
208	6612	1.548287474087	1
208	6613	1.548287474087	2
208	6725	1.548777474087	1
208	6725	1.548777474087	0
