version 2
run host10_20pps-0-20161107-20:39:15-9548
attr configname host10_20pps
attr datetime 20161107-20:39:15
attr experiment host10_20pps
attr inifile omnetpp_10.ini
attr iterationvars ""
attr iterationvars2 $repetition=0
attr measurement ""
attr network arb_png.car_host_10
attr processid 9548
attr repetition 0
attr replication #0
attr resultdir results
attr runnumber 0
attr seedset 0
param **.aodv.activeRouteTimeout 2s
param *.configurator.addStaticRoutes false
param *.configurator.config "xml(\"<config><interface hosts='**' address='10.0.0.x' netmask='255.255.255.0'/><autoroute metric='errorRate'/></config>\")"
param *.configurator.optimizeRoutes true
param *.host*.**.bitrate 1Mbps
param *.host*.networkLayer.arpType "\"GlobalARP\""
param *.host*.routingTable.netmaskRoutes "\"\""
param *.host*.wlan[0].mac.maxQueueSize 15
param *.host*.wlan[0].mac.useAck false
param *.host*.wlan[0].macType "\"CsmaCaMac\""
param *.host*.wlan[0].radio.bandwidth 2MHz
param *.host*.wlan[0].radio.carrierFrequency 2GHz
param *.host*.wlan[0].radio.displayCommunicationRange true
param *.host*.wlan[0].radio.displayInterferenceRange true
param *.host*.wlan[0].radio.receiver.energyDetection -85dBm
param *.host*.wlan[0].radio.receiver.ignoreInterference false
param *.host*.wlan[0].radio.receiver.sensitivity -85dBm
param *.host*.wlan[0].radio.receiver.snirThreshold 4dB
param *.host*.wlan[0].radio.transmitter.communicationRange 200m
param *.host*.wlan[0].radio.transmitter.headerBitLength 0b
param *.host*.wlan[0].radio.transmitter.power 1.4mW
param *.host*.wlan[0].radio.transmitter.preambleDuration 10us
param *.host*.wlan[0].radioType "\"APSKScalarRadio\""
param *.host*.wlan[0].typename "\"WirelessNic\""
param *.hostA.numUdpApps 1
param *.hostA.udpApp[0].destAddresses "\"hostD\""
param *.hostA.udpApp[0].destPort 5000
param *.hostA.udpApp[0].messageLength 1000B
param *.hostA.udpApp[0].packetName "\"Data\""
param *.hostA.udpApp[0].sendInterval 50ms
param *.hostA.udpApp[0].typename "\"UDPBasicApp\""
param *.hostD.numUdpApps 1
param *.hostD.udpApp[0].localPort 5000
param *.hostD.udpApp[0].typename "\"UDPSink\""
param *.hostType "\"AODVRouter\""
param *.mediumType "\"APSKScalarRadioMedium\""
param *.radioMedium.backgroundNoise.power -90dBm
param *.radioMedium.mediumLimitCache.carrierFrequency 2GHz
param *.visualizer.dataLinkVisualizer.packetNameFilter "\"AODV*\""
param *.visualizer.mediumVisualizer.signalPropagationUpdateInterval 100ns
param *.visualizer.mobilityVisualizer.displayMovementTrail true
param *.visualizer.networkRouteVisualizer.packetNameFilter "\"UDPData*\""
param *.visualizer.sceneVisualizer.descriptionFigure "\"title\""

vector 279  car_host_10.hostA.wlan[0].radio  radioMode:vector  ETV
attr interpolationmode  sample-hold
attr source  radioModeChanged
attr title  "Radio mode, vector"
vector 293  car_host_10.hostD.wlan[0].radio  radioMode:vector  ETV
attr interpolationmode  sample-hold
attr source  radioModeChanged
attr title  "Radio mode, vector"
vector 299  car_host_10.hostB.wlan[0].radio  radioMode:vector  ETV
attr interpolationmode  sample-hold
attr source  radioModeChanged
attr title  "Radio mode, vector"
vector 305  car_host_10.hostC.wlan[0].radio  radioMode:vector  ETV
attr interpolationmode  sample-hold
attr source  radioModeChanged
attr title  "Radio mode, vector"
vector 311  car_host_10.hostB1.wlan[0].radio  radioMode:vector  ETV
attr interpolationmode  sample-hold
attr source  radioModeChanged
attr title  "Radio mode, vector"
vector 317  car_host_10.hostB2.wlan[0].radio  radioMode:vector  ETV
attr interpolationmode  sample-hold
attr source  radioModeChanged
attr title  "Radio mode, vector"
vector 323  car_host_10.hostB3.wlan[0].radio  radioMode:vector  ETV
attr interpolationmode  sample-hold
attr source  radioModeChanged
attr title  "Radio mode, vector"
vector 329  car_host_10.hostB4.wlan[0].radio  radioMode:vector  ETV
attr interpolationmode  sample-hold
attr source  radioModeChanged
attr title  "Radio mode, vector"
vector 335  car_host_10.hostC1.wlan[0].radio  radioMode:vector  ETV
attr interpolationmode  sample-hold
attr source  radioModeChanged
attr title  "Radio mode, vector"
vector 341  car_host_10.hostC2.wlan[0].radio  radioMode:vector  ETV
attr interpolationmode  sample-hold
attr source  radioModeChanged
attr title  "Radio mode, vector"
vector 347  car_host_10.hostC3.wlan[0].radio  radioMode:vector  ETV
attr interpolationmode  sample-hold
attr source  radioModeChanged
attr title  "Radio mode, vector"
vector 353  car_host_10.hostC4.wlan[0].radio  radioMode:vector  ETV
attr interpolationmode  sample-hold
attr source  radioModeChanged
attr title  "Radio mode, vector"
vector 280  car_host_10.hostA.wlan[0].radio  receptionState:vector  ETV
attr interpolationmode  sample-hold
attr source  receptionStateChanged
attr title  "Radio reception state, vector"
vector 294  car_host_10.hostD.wlan[0].radio  receptionState:vector  ETV
attr interpolationmode  sample-hold
attr source  receptionStateChanged
attr title  "Radio reception state, vector"
vector 300  car_host_10.hostB.wlan[0].radio  receptionState:vector  ETV
attr interpolationmode  sample-hold
attr source  receptionStateChanged
attr title  "Radio reception state, vector"
vector 306  car_host_10.hostC.wlan[0].radio  receptionState:vector  ETV
attr interpolationmode  sample-hold
attr source  receptionStateChanged
attr title  "Radio reception state, vector"
vector 312  car_host_10.hostB1.wlan[0].radio  receptionState:vector  ETV
attr interpolationmode  sample-hold
attr source  receptionStateChanged
attr title  "Radio reception state, vector"
vector 318  car_host_10.hostB2.wlan[0].radio  receptionState:vector  ETV
attr interpolationmode  sample-hold
attr source  receptionStateChanged
attr title  "Radio reception state, vector"
vector 324  car_host_10.hostB3.wlan[0].radio  receptionState:vector  ETV
attr interpolationmode  sample-hold
attr source  receptionStateChanged
attr title  "Radio reception state, vector"
vector 330  car_host_10.hostB4.wlan[0].radio  receptionState:vector  ETV
attr interpolationmode  sample-hold
attr source  receptionStateChanged
attr title  "Radio reception state, vector"
vector 336  car_host_10.hostC1.wlan[0].radio  receptionState:vector  ETV
attr interpolationmode  sample-hold
attr source  receptionStateChanged
attr title  "Radio reception state, vector"
vector 342  car_host_10.hostC2.wlan[0].radio  receptionState:vector  ETV
attr interpolationmode  sample-hold
attr source  receptionStateChanged
attr title  "Radio reception state, vector"
vector 348  car_host_10.hostC3.wlan[0].radio  receptionState:vector  ETV
attr interpolationmode  sample-hold
attr source  receptionStateChanged
attr title  "Radio reception state, vector"
vector 354  car_host_10.hostC4.wlan[0].radio  receptionState:vector  ETV
attr interpolationmode  sample-hold
attr source  receptionStateChanged
attr title  "Radio reception state, vector"
vector 268  car_host_10.hostA.udpApp[0]  sentPk:vector(packetBytes)  ETV
attr interpolationmode  none
attr source  sentPk
attr title  "packets sent, vector(packetBytes)"
vector 271  car_host_10.hostA.udp  sentPk:vector(packetBytes)  ETV
attr interpolationmode  none
attr source  sentPk
attr title  "packets sent, vector(packetBytes)"
vector 281  car_host_10.hostA.wlan[0].radio  transmissionState:vector  ETV
attr interpolationmode  sample-hold
attr source  transmissionStateChanged
attr title  "Radio transmission state, vector"
vector 325  car_host_10.hostB3.wlan[0].radio  transmissionState:vector  ETV
attr interpolationmode  sample-hold
attr source  transmissionStateChanged
attr title  "Radio transmission state, vector"
vector 313  car_host_10.hostB1.wlan[0].radio  transmissionState:vector  ETV
attr interpolationmode  sample-hold
attr source  transmissionStateChanged
attr title  "Radio transmission state, vector"
vector 331  car_host_10.hostB4.wlan[0].radio  transmissionState:vector  ETV
attr interpolationmode  sample-hold
attr source  transmissionStateChanged
attr title  "Radio transmission state, vector"
vector 301  car_host_10.hostB.wlan[0].radio  transmissionState:vector  ETV
attr interpolationmode  sample-hold
attr source  transmissionStateChanged
attr title  "Radio transmission state, vector"
vector 343  car_host_10.hostC2.wlan[0].radio  transmissionState:vector  ETV
attr interpolationmode  sample-hold
attr source  transmissionStateChanged
attr title  "Radio transmission state, vector"
vector 307  car_host_10.hostC.wlan[0].radio  transmissionState:vector  ETV
attr interpolationmode  sample-hold
attr source  transmissionStateChanged
attr title  "Radio transmission state, vector"
vector 349  car_host_10.hostC3.wlan[0].radio  transmissionState:vector  ETV
attr interpolationmode  sample-hold
attr source  transmissionStateChanged
attr title  "Radio transmission state, vector"
vector 319  car_host_10.hostB2.wlan[0].radio  transmissionState:vector  ETV
attr interpolationmode  sample-hold
attr source  transmissionStateChanged
attr title  "Radio transmission state, vector"
vector 295  car_host_10.hostD.wlan[0].radio  transmissionState:vector  ETV
attr interpolationmode  sample-hold
attr source  transmissionStateChanged
attr title  "Radio transmission state, vector"
vector 337  car_host_10.hostC1.wlan[0].radio  transmissionState:vector  ETV
attr interpolationmode  sample-hold
attr source  transmissionStateChanged
attr title  "Radio transmission state, vector"
vector 355  car_host_10.hostC4.wlan[0].radio  transmissionState:vector  ETV
attr interpolationmode  sample-hold
attr source  transmissionStateChanged
attr title  "Radio transmission state, vector"
vector 286  car_host_10.hostD.udp  rcvdPk:vector(packetBytes)  ETV
attr interpolationmode  none
attr source  rcvdPk
attr title  "packets received, vector(packetBytes)"
vector 287  car_host_10.hostD.udp  passedUpPk:vector(count)  ETV
attr interpolationmode  none
attr title  "packets passed up, vector(count)"
vector 282  car_host_10.hostD.udpApp[0]  rcvdPk:vector(packetBytes)  ETV
attr interpolationmode  none
attr source  rcvdPk
attr title  "packets received, vector(packetBytes)"
vector 283  car_host_10.hostD.udpApp[0]  endToEndDelay:vector  ETV
attr interpolationmode  none
attr source  messageAge(rcvdPk)
attr title  "end-to-end delay, vector"
attr unit  s
vector 284  car_host_10.hostD.udpApp[0]  rcvdPkSeqNo:vector  ETV
attr interpolationmode  none
attr source  appPkSeqNo(rcvdPk)
attr title  "received packet sequence number, vector"
268	42	0.05	1000
268	215	0.1	1000
268	218	0.15	1000
268	221	0.2	1000
268	224	0.25	1000
268	227	0.3	1000
268	230	0.35	1000
268	619	0.4	1000
268	622	0.45	1000
268	625	0.5	1000
268	628	0.55	1000
268	631	0.6	1000
268	634	0.65	1000
268	637	0.7	1000
268	640	0.75	1000
268	643	0.8	1000
268	647	0.85	1000
268	1168	0.9	1000
268	1171	0.95	1000
268	1186	1	1000
268	1189	1.05	1000
268	1192	1.1	1000
268	1195	1.15	1000
268	1198	1.2	1000
268	1201	1.25	1000
268	1204	1.3	1000
268	1207	1.35	1000
268	1210	1.4	1000
268	1213	1.45	1000
268	1342	1.5	1000
268	2039	1.55	1000
268	2275	1.6	1000
268	2588	1.65	1000
268	2872	1.7	1000
268	2952	1.75	1000
268	2985	1.8	1000
268	3155	1.85	1000
268	3189	1.9	1000
268	3222	1.95	1000
268	3267	2	1000
268	3437	2.05	1000
268	3471	2.1	1000
268	3641	2.15	1000
268	3675	2.2	1000
268	3708	2.25	1000
268	3741	2.3	1000
268	3911	2.35	1000
268	4082	2.4	1000
268	4116	2.45	1000
268	4149	2.5	1000
268	4182	2.55	1000
268	4215	2.6	1000
268	4248	2.65	1000
268	4281	2.7	1000
268	4314	2.75	1000
268	4347	2.8	1000
268	4380	2.85	1000
268	4413	2.9	1000
268	4446	2.95	1000
268	4628	3	1000
268	4662	3.05	1000
268	4832	3.1	1000
268	4866	3.15	1000
268	4899	3.2	1000
268	4932	3.25	1000
268	4965	3.3	1000
268	4998	3.35	1000
268	5031	3.4	1000
268	5064	3.45	1000
268	5107	3.5	1000
268	5321	3.55	1000
268	5355	3.6	1000
268	5525	3.65	1000
268	5559	3.7	1000
268	5729	3.75	1000
268	5763	3.8	1000
268	5933	3.85	1000
268	6104	3.9	1000
268	6138	3.95	1000
268	6320	4	1000
268	6354	4.05	1000
268	6524	4.1	1000
268	6558	4.15	1000
268	6728	4.2	1000
268	6899	4.25	1000
268	6933	4.3	1000
268	7103	4.35	1000
268	7274	4.4	1000
268	7308	4.45	1000
268	7478	4.5	1000
268	7512	4.55	1000
268	7682	4.6	1000
268	7853	4.65	1000
268	7887	4.7	1000
268	8057	4.75	1000
268	8228	4.8	1000
271	44	0.05	1008
271	216	0.1	1008
271	219	0.15	1008
271	222	0.2	1008
271	225	0.25	1008
271	228	0.3	1008
271	231	0.35	1008
271	620	0.4	1008
271	623	0.45	1008
271	626	0.5	1008
271	629	0.55	1008
271	632	0.6	1008
271	635	0.65	1008
271	638	0.7	1008
271	641	0.75	1008
271	644	0.8	1008
271	648	0.85	1008
271	1169	0.9	1008
271	1172	0.95	1008
271	1187	1	1008
271	1190	1.05	1008
271	1193	1.1	1008
271	1196	1.15	1008
271	1199	1.2	1008
271	1202	1.25	1008
271	1205	1.3	1008
271	1208	1.35	1008
271	1211	1.4	1008
271	1214	1.45	1008
271	1343	1.5	1008
271	2040	1.55	1008
271	2276	1.6	1008
271	2589	1.65	1008
271	2873	1.7	1008
271	2953	1.75	1008
271	2986	1.8	1008
271	3156	1.85	1008
271	3190	1.9	1008
271	3223	1.95	1008
271	3268	2	1008
271	3438	2.05	1008
271	3472	2.1	1008
271	3642	2.15	1008
271	3676	2.2	1008
271	3709	2.25	1008
271	3742	2.3	1008
271	3912	2.35	1008
271	4083	2.4	1008
271	4117	2.45	1008
271	4150	2.5	1008
271	4183	2.55	1008
271	4216	2.6	1008
271	4249	2.65	1008
271	4282	2.7	1008
271	4315	2.75	1008
271	4348	2.8	1008
271	4381	2.85	1008
271	4414	2.9	1008
271	4447	2.95	1008
271	4629	3	1008
271	4663	3.05	1008
271	4833	3.1	1008
271	4867	3.15	1008
271	4900	3.2	1008
271	4933	3.25	1008
271	4966	3.3	1008
271	4999	3.35	1008
271	5032	3.4	1008
271	5065	3.45	1008
271	5108	3.5	1008
271	5322	3.55	1008
271	5356	3.6	1008
271	5526	3.65	1008
271	5560	3.7	1008
271	5730	3.75	1008
271	5764	3.8	1008
271	5934	3.85	1008
271	6105	3.9	1008
271	6139	3.95	1008
271	6321	4	1008
271	6355	4.05	1008
271	6525	4.1	1008
271	6559	4.15	1008
271	6729	4.2	1008
271	6900	4.25	1008
271	6934	4.3	1008
271	7104	4.35	1008
271	7275	4.4	1008
271	7309	4.45	1008
271	7479	4.5	1008
271	7513	4.55	1008
271	7683	4.6	1008
271	7854	4.65	1008
271	7888	4.7	1008
271	8058	4.75	1008
271	8229	4.8	1008
279	0	0	0
279	0	0	2
279	48	0.051001753887	3
279	61	0.051491753887	2
279	236	0.373188177504	3
279	249	0.373678177504	2
279	652	0.854919724995	3
279	665	0.855409724995	2
279	1219	1.494688676798	3
279	1232	1.495178676798	2
279	1914	1.524038854753	3
279	1929	1.532336854753	2
279	1993	1.541616473845	3
279	2027	1.549914473845	2
279	2043	1.550054473845	3
279	2070	1.558352473845	2
279	2105	1.558412473845	3
279	2133	1.566710473845	2
279	2168	1.567110473845	3
279	2183	1.575408473845	2
279	2200	1.575828473845	3
279	2215	1.584126473845	2
279	2230	1.584546473845	3
279	2244	1.592844473845	2
279	2335	1.610202092937	3
279	2361	1.618500092937	2
279	2362	1.618500092937	3
279	2419	1.626798092937	2
279	2434	1.626878092937	3
279	2482	1.635176092937	2
279	2525	1.635917965614	3
279	2558	1.644215965614	2
279	2559	1.644215965614	3
279	2592	1.652513965614	2
279	2607	1.652973965614	3
279	2622	1.661271965614	2
279	2686	1.670351584706	3
279	2733	1.678649584706	2
279	2745	1.678709584706	3
279	2792	1.687007584706	2
279	2793	1.687007584706	3
279	2842	1.695305584706	2
279	2857	1.695385584706	3
279	2876	1.703683584706	2
279	2891	1.704203584706	3
279	2906	1.712501584706	2
279	2921	1.712841584706	3
279	2935	1.721139584706	2
279	2956	1.75038	3
279	2969	1.758678	2
279	2989	1.80046	3
279	3002	1.808758	2
279	3159	1.85014	3
279	3173	1.858438	2
279	3193	1.9003	3
279	3206	1.908598	2
279	3226	1.95034	3
279	3239	1.958638	2
279	3271	2.00056	3
279	3284	2.008858	2
279	3441	2.05018	3
279	3455	2.058478	2
279	3475	2.10038	3
279	3488	2.108678	2
279	3645	2.1503	3
279	3659	2.158598	2
279	3679	2.20034	3
279	3692	2.208638	2
279	3712	2.25006	3
279	3725	2.258358	2
279	3745	2.30034	3
279	3758	2.308638	2
279	3915	2.35044	3
279	3929	2.358738	2
279	4086	2.40012	3
279	4100	2.408418	2
279	4120	2.45054	3
279	4133	2.458838	2
279	4153	2.50028	3
279	4166	2.508578	2
279	4186	2.55024	3
279	4199	2.558538	2
279	4219	2.60018	3
279	4232	2.608478	2
279	4252	2.65034	3
279	4265	2.658638	2
279	4285	2.7005	3
279	4298	2.708798	2
279	4318	2.7506	3
279	4331	2.758898	2
279	4351	2.8006	3
279	4364	2.808898	2
279	4384	2.85018	3
279	4397	2.858478	2
279	4417	2.90044	3
279	4430	2.908738	2
279	4450	2.95038	3
279	4463	2.958678	2
279	4632	3.00036	3
279	4646	3.008658	2
279	4666	3.05044	3
279	4679	3.058738	2
279	4836	3.10006	3
279	4850	3.108358	2
279	4870	3.15038	3
279	4883	3.158678	2
279	4903	3.20056	3
279	4916	3.208858	2
279	4936	3.25056	3
279	4949	3.258858	2
279	4969	3.30026	3
279	4982	3.308558	2
279	5002	3.35042	3
279	5015	3.358718	2
279	5035	3.40026	3
279	5048	3.408558	2
279	5068	3.4505	3
279	5081	3.458798	2
279	5111	3.50032	3
279	5168	3.508618	2
279	5325	3.55058	3
279	5339	3.558878	2
279	5359	3.60008	3
279	5372	3.608378	2
279	5529	3.65044	3
279	5543	3.658738	2
279	5563	3.70038	3
279	5576	3.708678	2
279	5733	3.75034	3
279	5747	3.758638	2
279	5767	3.8004	3
279	5780	3.808698	2
279	5937	3.85002	3
279	5951	3.858318	2
279	6108	3.9	3
279	6122	3.908298	2
279	6142	3.95006	3
279	6155	3.958358	2
279	6324	4.00012	3
279	6338	4.008418	2
279	6358	4.0506	3
279	6371	4.058898	2
279	6528	4.10042	3
279	6542	4.108718	2
279	6562	4.15052	3
279	6575	4.158818	2
279	6732	4.20056	3
279	6746	4.208858	2
279	6903	4.25034	3
279	6917	4.258638	2
279	6937	4.3006	3
279	6950	4.308898	2
279	7107	4.35004	3
279	7121	4.358338	2
279	7278	4.4006	3
279	7292	4.408898	2
279	7312	4.4502	3
279	7325	4.458498	2
279	7482	4.50002	3
279	7496	4.508318	2
279	7516	4.5501	3
279	7529	4.558398	2
279	7686	4.60014	3
279	7700	4.608438	2
279	7857	4.65046	3
279	7871	4.658758	2
279	7891	4.70004	3
279	7904	4.708338	2
279	8061	4.75028	3
279	8075	4.758578	2
279	8232	4.8004	3
279	8246	4.808698	2
280	0	0	1
280	48	0.051001753887	0
280	61	0.051491753887	1
280	91	0.054380769793	3
280	118	0.054870769793	1
280	133	0.05566884314	3
280	151	0.05615884314	1
280	173	0.056785630471	3
280	185	0.057275630471	1
280	236	0.373188177504	0
280	249	0.373678177504	1
280	274	0.374970569302	3
280	286	0.375460569302	1
280	318	0.375791918828	3
280	338	0.376281918828	1
280	459	0.378648609444	3
280	493	0.379138609444	1
280	652	0.854919724995	0
280	665	0.855409724995	1
280	692	0.855869594894	3
280	710	0.856359594894	1
280	739	0.858127140157	3
280	770	0.858617140157	1
280	781	0.859117175953	3
280	793	0.859607175953	1
280	937	0.86147849396	2
280	960	0.861786921059	1
280	1219	1.494688676798	0
280	1232	1.495178676798	1
280	1264	1.498426327148	3
280	1293	1.498916327148	1
280	1306	1.499036837549	3
280	1324	1.499526837549	1
280	1347	1.500006981656	3
280	1359	1.500496981656	1
280	1858	1.523160854753	3
280	1875	1.523618854753	1
280	1914	1.524038854753	0
280	1929	1.532336854753	1
280	1953	1.532918473845	3
280	1973	1.541216473845	1
280	1993	1.541616473845	0
280	2027	1.549914473845	1
280	2043	1.550054473845	0
280	2070	1.558352473845	1
280	2105	1.558412473845	0
280	2133	1.566710473845	1
280	2168	1.567110473845	0
280	2183	1.575408473845	1
280	2200	1.575828473845	0
280	2215	1.584126473845	1
280	2230	1.584546473845	0
280	2244	1.592844473845	1
280	2268	1.593206092937	3
280	2292	1.601504092937	1
280	2306	1.601724092937	3
280	2326	1.610022092937	1
280	2335	1.610202092937	0
280	2361	1.618500092937	1
280	2362	1.618500092937	0
280	2419	1.626798092937	1
280	2434	1.626878092937	0
280	2482	1.635176092937	1
280	2509	1.635280390953	2
280	2521	1.635477965614	1
280	2525	1.635917965614	0
280	2558	1.644215965614	1
280	2559	1.644215965614	0
280	2592	1.652513965614	1
280	2607	1.652973965614	0
280	2622	1.661271965614	1
280	2646	1.661493584706	3
280	2668	1.669791584706	1
280	2686	1.670351584706	0
280	2733	1.678649584706	1
280	2745	1.678709584706	0
280	2792	1.687007584706	1
280	2793	1.687007584706	0
280	2842	1.695305584706	1
280	2857	1.695385584706	0
280	2876	1.703683584706	1
280	2891	1.704203584706	0
280	2906	1.712501584706	1
280	2921	1.712841584706	0
280	2935	1.721139584706	1
280	2956	1.75038	0
280	2969	1.758678	1
280	2989	1.80046	0
280	3002	1.808758	1
280	3026	1.809019619092	3
280	3045	1.817317619092	1
280	3159	1.85014	0
280	3173	1.858438	1
280	3193	1.9003	0
280	3206	1.908598	1
280	3226	1.95034	0
280	3239	1.958638	1
280	3271	2.00056	0
280	3284	2.008858	1
280	3308	2.009119619092	3
280	3327	2.017417619092	1
280	3441	2.05018	0
280	3455	2.058478	1
280	3475	2.10038	0
280	3488	2.108678	1
280	3512	2.109079619092	3
280	3531	2.117377619092	1
280	3645	2.1503	0
280	3659	2.158598	1
280	3679	2.20034	0
280	3692	2.208638	1
280	3712	2.25006	0
280	3725	2.258358	1
280	3745	2.30034	0
280	3758	2.308638	1
280	3782	2.309159619092	3
280	3801	2.317457619092	1
280	3915	2.35044	0
280	3929	2.358738	1
280	3953	2.359159619092	3
280	3972	2.367457619092	1
280	4086	2.40012	0
280	4100	2.408418	1
280	4120	2.45054	0
280	4133	2.458838	1
280	4153	2.50028	0
280	4166	2.508578	1
280	4186	2.55024	0
280	4199	2.558538	1
280	4219	2.60018	0
280	4232	2.608478	1
280	4252	2.65034	0
280	4265	2.658638	1
280	4285	2.7005	0
280	4298	2.708798	1
280	4318	2.7506	0
280	4331	2.758898	1
280	4351	2.8006	0
280	4364	2.808898	1
280	4384	2.85018	0
280	4397	2.858478	1
280	4417	2.90044	0
280	4430	2.908738	1
280	4450	2.95038	0
280	4463	2.958678	1
280	4487	2.959259619092	3
280	4506	2.967557619092	1
280	4632	3.00036	0
280	4646	3.008658	1
280	4666	3.05044	0
280	4679	3.058738	1
280	4703	3.059099619092	3
280	4722	3.067397619092	1
280	4836	3.10006	0
280	4850	3.108358	1
280	4870	3.15038	0
280	4883	3.158678	1
280	4903	3.20056	0
280	4916	3.208858	1
280	4936	3.25056	0
280	4949	3.258858	1
280	4969	3.30026	0
280	4982	3.308558	1
280	5002	3.35042	0
280	5015	3.358718	1
280	5035	3.40026	0
280	5048	3.408558	1
280	5068	3.4505	0
280	5081	3.458798	1
280	5111	3.50032	0
280	5168	3.508618	1
280	5192	3.508719619092	3
280	5211	3.517017619092	1
280	5325	3.55058	0
280	5339	3.558878	1
280	5359	3.60008	0
280	5372	3.608378	1
280	5396	3.608979619092	3
280	5415	3.617277619092	1
280	5529	3.65044	0
280	5543	3.658738	1
280	5563	3.70038	0
280	5576	3.708678	1
280	5600	3.708959619092	3
280	5619	3.717257619092	1
280	5733	3.75034	0
280	5747	3.758638	1
280	5767	3.8004	0
280	5780	3.808698	1
280	5804	3.809099619092	3
280	5823	3.817397619092	1
280	5937	3.85002	0
280	5951	3.858318	1
280	5975	3.858839619092	3
280	5994	3.867137619092	1
280	6108	3.9	0
280	6122	3.908298	1
280	6142	3.95006	0
280	6155	3.958358	1
280	6179	3.958399619092	3
280	6198	3.966697619092	1
280	6324	4.00012	0
280	6338	4.008418	1
280	6358	4.0506	0
280	6371	4.058898	1
280	6395	4.058939619092	3
280	6414	4.067237619092	1
280	6528	4.10042	0
280	6542	4.108718	1
280	6562	4.15052	0
280	6575	4.158818	1
280	6599	4.159439619092	3
280	6618	4.167737619092	1
280	6732	4.20056	0
280	6746	4.208858	1
280	6770	4.209239619092	3
280	6789	4.217537619092	1
280	6903	4.25034	0
280	6917	4.258638	1
280	6937	4.3006	0
280	6950	4.308898	1
280	6974	4.308919619092	3
280	6993	4.317217619092	1
280	7107	4.35004	0
280	7121	4.358338	1
280	7145	4.358479619092	3
280	7164	4.366777619092	1
280	7278	4.4006	0
280	7292	4.408898	1
280	7312	4.4502	0
280	7325	4.458498	1
280	7349	4.458939619092	3
280	7368	4.467237619092	1
280	7482	4.50002	0
280	7496	4.508318	1
280	7516	4.5501	0
280	7529	4.558398	1
280	7553	4.558899619092	3
280	7572	4.567197619092	1
280	7686	4.60014	0
280	7700	4.608438	1
280	7724	4.608519619092	3
280	7743	4.616817619092	1
280	7857	4.65046	0
280	7871	4.658758	1
280	7891	4.70004	0
280	7904	4.708338	1
280	7928	4.708559619092	3
280	7947	4.716857619092	1
280	8061	4.75028	0
280	8075	4.758578	1
280	8099	4.758599619092	3
280	8118	4.766897619092	1
280	8232	4.8004	0
280	8246	4.808698	1
281	48	0.051001753887	1
281	49	0.051001753887	2
281	61	0.051491753887	1
281	61	0.051491753887	0
281	236	0.373188177504	1
281	237	0.373188177504	2
281	249	0.373678177504	1
281	249	0.373678177504	0
281	652	0.854919724995	1
281	653	0.854919724995	2
281	665	0.855409724995	1
281	665	0.855409724995	0
281	1219	1.494688676798	1
281	1220	1.494688676798	2
281	1232	1.495178676798	1
281	1232	1.495178676798	0
281	1914	1.524038854753	1
281	1915	1.524038854753	2
281	1929	1.532336854753	1
281	1929	1.532336854753	0
281	1993	1.541616473845	1
281	1994	1.541616473845	2
281	2027	1.549914473845	1
281	2027	1.549914473845	0
281	2043	1.550054473845	1
281	2044	1.550054473845	2
281	2070	1.558352473845	1
281	2070	1.558352473845	0
281	2105	1.558412473845	1
281	2106	1.558412473845	2
281	2133	1.566710473845	1
281	2133	1.566710473845	0
281	2168	1.567110473845	1
281	2169	1.567110473845	2
281	2183	1.575408473845	1
281	2183	1.575408473845	0
281	2200	1.575828473845	1
281	2201	1.575828473845	2
281	2215	1.584126473845	1
281	2215	1.584126473845	0
281	2230	1.584546473845	1
281	2231	1.584546473845	2
281	2244	1.592844473845	1
281	2244	1.592844473845	0
281	2335	1.610202092937	1
281	2336	1.610202092937	2
281	2361	1.618500092937	1
281	2361	1.618500092937	0
281	2362	1.618500092937	1
281	2363	1.618500092937	2
281	2419	1.626798092937	1
281	2419	1.626798092937	0
281	2434	1.626878092937	1
281	2435	1.626878092937	2
281	2482	1.635176092937	1
281	2482	1.635176092937	0
281	2525	1.635917965614	1
281	2526	1.635917965614	2
281	2558	1.644215965614	1
281	2558	1.644215965614	0
281	2559	1.644215965614	1
281	2560	1.644215965614	2
281	2592	1.652513965614	1
281	2592	1.652513965614	0
281	2607	1.652973965614	1
281	2608	1.652973965614	2
281	2622	1.661271965614	1
281	2622	1.661271965614	0
281	2686	1.670351584706	1
281	2687	1.670351584706	2
281	2733	1.678649584706	1
281	2733	1.678649584706	0
281	2745	1.678709584706	1
281	2746	1.678709584706	2
281	2792	1.687007584706	1
281	2792	1.687007584706	0
281	2793	1.687007584706	1
281	2794	1.687007584706	2
281	2842	1.695305584706	1
281	2842	1.695305584706	0
281	2857	1.695385584706	1
281	2858	1.695385584706	2
281	2876	1.703683584706	1
281	2876	1.703683584706	0
281	2891	1.704203584706	1
281	2892	1.704203584706	2
281	2906	1.712501584706	1
281	2906	1.712501584706	0
281	2921	1.712841584706	1
281	2922	1.712841584706	2
281	2935	1.721139584706	1
281	2935	1.721139584706	0
281	2956	1.75038	1
281	2957	1.75038	2
281	2969	1.758678	1
281	2969	1.758678	0
281	2989	1.80046	1
281	2990	1.80046	2
281	3002	1.808758	1
281	3002	1.808758	0
281	3159	1.85014	1
281	3160	1.85014	2
281	3173	1.858438	1
281	3173	1.858438	0
281	3193	1.9003	1
281	3194	1.9003	2
281	3206	1.908598	1
281	3206	1.908598	0
281	3226	1.95034	1
281	3227	1.95034	2
281	3239	1.958638	1
281	3239	1.958638	0
281	3271	2.00056	1
281	3272	2.00056	2
281	3284	2.008858	1
281	3284	2.008858	0
281	3441	2.05018	1
281	3442	2.05018	2
281	3455	2.058478	1
281	3455	2.058478	0
281	3475	2.10038	1
281	3476	2.10038	2
281	3488	2.108678	1
281	3488	2.108678	0
281	3645	2.1503	1
281	3646	2.1503	2
281	3659	2.158598	1
281	3659	2.158598	0
281	3679	2.20034	1
281	3680	2.20034	2
281	3692	2.208638	1
281	3692	2.208638	0
281	3712	2.25006	1
281	3713	2.25006	2
281	3725	2.258358	1
281	3725	2.258358	0
281	3745	2.30034	1
281	3746	2.30034	2
281	3758	2.308638	1
281	3758	2.308638	0
281	3915	2.35044	1
281	3916	2.35044	2
281	3929	2.358738	1
281	3929	2.358738	0
281	4086	2.40012	1
281	4087	2.40012	2
281	4100	2.408418	1
281	4100	2.408418	0
281	4120	2.45054	1
281	4121	2.45054	2
281	4133	2.458838	1
281	4133	2.458838	0
281	4153	2.50028	1
281	4154	2.50028	2
281	4166	2.508578	1
281	4166	2.508578	0
281	4186	2.55024	1
281	4187	2.55024	2
281	4199	2.558538	1
281	4199	2.558538	0
281	4219	2.60018	1
281	4220	2.60018	2
281	4232	2.608478	1
281	4232	2.608478	0
281	4252	2.65034	1
281	4253	2.65034	2
281	4265	2.658638	1
281	4265	2.658638	0
281	4285	2.7005	1
281	4286	2.7005	2
281	4298	2.708798	1
281	4298	2.708798	0
281	4318	2.7506	1
281	4319	2.7506	2
281	4331	2.758898	1
281	4331	2.758898	0
281	4351	2.8006	1
281	4352	2.8006	2
281	4364	2.808898	1
281	4364	2.808898	0
281	4384	2.85018	1
281	4385	2.85018	2
281	4397	2.858478	1
281	4397	2.858478	0
281	4417	2.90044	1
281	4418	2.90044	2
281	4430	2.908738	1
281	4430	2.908738	0
281	4450	2.95038	1
281	4451	2.95038	2
281	4463	2.958678	1
281	4463	2.958678	0
281	4632	3.00036	1
281	4633	3.00036	2
281	4646	3.008658	1
281	4646	3.008658	0
281	4666	3.05044	1
281	4667	3.05044	2
281	4679	3.058738	1
281	4679	3.058738	0
281	4836	3.10006	1
281	4837	3.10006	2
281	4850	3.108358	1
281	4850	3.108358	0
281	4870	3.15038	1
281	4871	3.15038	2
281	4883	3.158678	1
281	4883	3.158678	0
281	4903	3.20056	1
281	4904	3.20056	2
281	4916	3.208858	1
281	4916	3.208858	0
281	4936	3.25056	1
281	4937	3.25056	2
281	4949	3.258858	1
281	4949	3.258858	0
281	4969	3.30026	1
281	4970	3.30026	2
281	4982	3.308558	1
281	4982	3.308558	0
281	5002	3.35042	1
281	5003	3.35042	2
281	5015	3.358718	1
281	5015	3.358718	0
281	5035	3.40026	1
281	5036	3.40026	2
281	5048	3.408558	1
281	5048	3.408558	0
281	5068	3.4505	1
281	5069	3.4505	2
281	5081	3.458798	1
281	5081	3.458798	0
281	5111	3.50032	1
281	5112	3.50032	2
281	5168	3.508618	1
281	5168	3.508618	0
281	5325	3.55058	1
281	5326	3.55058	2
281	5339	3.558878	1
281	5339	3.558878	0
281	5359	3.60008	1
281	5360	3.60008	2
281	5372	3.608378	1
281	5372	3.608378	0
281	5529	3.65044	1
281	5530	3.65044	2
281	5543	3.658738	1
281	5543	3.658738	0
281	5563	3.70038	1
281	5564	3.70038	2
281	5576	3.708678	1
281	5576	3.708678	0
281	5733	3.75034	1
281	5734	3.75034	2
281	5747	3.758638	1
281	5747	3.758638	0
281	5767	3.8004	1
281	5768	3.8004	2
281	5780	3.808698	1
281	5780	3.808698	0
281	5937	3.85002	1
281	5938	3.85002	2
281	5951	3.858318	1
281	5951	3.858318	0
281	6108	3.9	1
281	6109	3.9	2
281	6122	3.908298	1
281	6122	3.908298	0
281	6142	3.95006	1
281	6143	3.95006	2
281	6155	3.958358	1
281	6155	3.958358	0
281	6324	4.00012	1
281	6325	4.00012	2
281	6338	4.008418	1
281	6338	4.008418	0
281	6358	4.0506	1
281	6359	4.0506	2
281	6371	4.058898	1
281	6371	4.058898	0
281	6528	4.10042	1
281	6529	4.10042	2
281	6542	4.108718	1
281	6542	4.108718	0
281	6562	4.15052	1
281	6563	4.15052	2
281	6575	4.158818	1
281	6575	4.158818	0
281	6732	4.20056	1
281	6733	4.20056	2
281	6746	4.208858	1
281	6746	4.208858	0
281	6903	4.25034	1
281	6904	4.25034	2
281	6917	4.258638	1
281	6917	4.258638	0
281	6937	4.3006	1
281	6938	4.3006	2
281	6950	4.308898	1
281	6950	4.308898	0
281	7107	4.35004	1
281	7108	4.35004	2
281	7121	4.358338	1
281	7121	4.358338	0
281	7278	4.4006	1
281	7279	4.4006	2
281	7292	4.408898	1
281	7292	4.408898	0
281	7312	4.4502	1
281	7313	4.4502	2
281	7325	4.458498	1
281	7325	4.458498	0
281	7482	4.50002	1
281	7483	4.50002	2
281	7496	4.508318	1
281	7496	4.508318	0
281	7516	4.5501	1
281	7517	4.5501	2
281	7529	4.558398	1
281	7529	4.558398	0
281	7686	4.60014	1
281	7687	4.60014	2
281	7700	4.608438	1
281	7700	4.608438	0
281	7857	4.65046	1
281	7858	4.65046	2
281	7871	4.658758	1
281	7871	4.658758	0
281	7891	4.70004	1
281	7892	4.70004	2
281	7904	4.708338	1
281	7904	4.708338	0
281	8061	4.75028	1
281	8062	4.75028	2
281	8075	4.758578	1
281	8075	4.758578	0
281	8232	4.8004	1
281	8233	4.8004	2
281	8246	4.808698	1
281	8246	4.808698	0
282	2157	1.567011927926	1000
282	2549	1.643576755078	1000
282	2831	1.695027038787	1000
282	3143	1.843433073173	1000
282	3425	2.043273073173	1000
282	3629	2.143813073173	1000
282	3899	2.342913073173	1000
282	4070	2.393133073173	1000
282	4604	2.993433073173	1000
282	4820	3.093173073173	1000
282	5309	3.542373073173	1000
282	5513	3.642673073173	1000
282	5717	3.743013073173	1000
282	5921	3.843053073173	1000
282	6092	3.893573073173	1000
282	6296	3.992273073173	1000
282	6512	4.092893073173	1000
282	6716	4.193953073173	1000
282	6887	4.243433073173	1000
282	7091	4.343193073173	1000
282	7262	4.392573073173	1000
282	7466	4.493473073173	1000
282	7670	4.593093073173	1000
282	7841	4.642493073173	1000
282	8045	4.742553073173	1000
282	8216	4.792473073173	1000
283	2157	1.567011927926	1.517011927926
283	2549	1.643576755078	1.393576755078
283	2831	1.695027038787	1.045027038787
283	3143	1.843433073173	0.043433073173
283	3425	2.043273073173	0.043273073173
283	3629	2.143813073173	0.043813073173
283	3899	2.342913073173	0.042913073173
283	4070	2.393133073173	0.043133073173
283	4604	2.993433073173	0.043433073173
283	4820	3.093173073173	0.043173073173
283	5309	3.542373073173	0.042373073173
283	5513	3.642673073173	0.042673073173
283	5717	3.743013073173	0.043013073173
283	5921	3.843053073173	0.043053073173
283	6092	3.893573073173	0.043573073173
283	6296	3.992273073173	0.042273073173
283	6512	4.092893073173	0.042893073173
283	6716	4.193953073173	0.043953073173
283	6887	4.243433073173	0.043433073173
283	7091	4.343193073173	0.043193073173
283	7262	4.392573073173	0.042573073173
283	7466	4.493473073173	0.043473073173
283	7670	4.593093073173	0.043093073173
283	7841	4.642493073173	0.042493073173
283	8045	4.742553073173	0.042553073173
283	8216	4.792473073173	0.042473073173
284	2157	1.567011927926	0
284	2549	1.643576755078	4
284	2831	1.695027038787	12
284	3143	1.843433073173	35
284	3425	2.043273073173	39
284	3629	2.143813073173	41
284	3899	2.342913073173	45
284	4070	2.393133073173	46
284	4604	2.993433073173	58
284	4820	3.093173073173	60
284	5309	3.542373073173	69
284	5513	3.642673073173	71
284	5717	3.743013073173	73
284	5921	3.843053073173	75
284	6092	3.893573073173	76
284	6296	3.992273073173	78
284	6512	4.092893073173	80
284	6716	4.193953073173	82
284	6887	4.243433073173	83
284	7091	4.343193073173	85
284	7262	4.392573073173	86
284	7466	4.493473073173	88
284	7670	4.593093073173	90
284	7841	4.642493073173	91
284	8045	4.742553073173	93
284	8216	4.792473073173	94
286	2156	1.567011927926	1008
286	2548	1.643576755078	1008
286	2830	1.695027038787	1008
286	3142	1.843433073173	1008
286	3424	2.043273073173	1008
286	3628	2.143813073173	1008
286	3898	2.342913073173	1008
286	4069	2.393133073173	1008
286	4603	2.993433073173	1008
286	4819	3.093173073173	1008
286	5308	3.542373073173	1008
286	5512	3.642673073173	1008
286	5716	3.743013073173	1008
286	5920	3.843053073173	1008
286	6091	3.893573073173	1008
286	6295	3.992273073173	1008
286	6511	4.092893073173	1008
286	6715	4.193953073173	1008
286	6886	4.243433073173	1008
286	7090	4.343193073173	1008
286	7261	4.392573073173	1008
286	7465	4.493473073173	1008
286	7669	4.593093073173	1008
286	7840	4.642493073173	1008
286	8044	4.742553073173	1008
286	8215	4.792473073173	1008
287	2156	1.567011927926	1
287	2548	1.643576755078	2
287	2830	1.695027038787	3
287	3142	1.843433073173	4
287	3424	2.043273073173	5
287	3628	2.143813073173	6
287	3898	2.342913073173	7
287	4069	2.393133073173	8
287	4603	2.993433073173	9
287	4819	3.093173073173	10
287	5308	3.542373073173	11
287	5512	3.642673073173	12
287	5716	3.743013073173	13
287	5920	3.843053073173	14
287	6091	3.893573073173	15
287	6295	3.992273073173	16
287	6511	4.092893073173	17
287	6715	4.193953073173	18
287	6886	4.243433073173	19
287	7090	4.343193073173	20
287	7261	4.392573073173	21
287	7465	4.493473073173	22
287	7669	4.593093073173	23
287	7840	4.642493073173	24
287	8044	4.742553073173	25
287	8215	4.792473073173	26
293	0	0	0
293	0	0	2
293	925	0.861475843958	3
293	964	0.861933843958	2
293	1616	1.505551200022	3
293	1631	1.506009200022	2
294	0	0	1
294	474	0.378758715211	3
294	515	0.379248715211	1
294	874	0.860705843958	3
294	901	0.861195843958	1
294	925	0.861475843958	0
294	964	0.861933843958	1
294	1033	0.864691761338	3
294	1055	0.865181761338	1
294	1079	0.865342479886	3
294	1104	0.865832479886	1
294	1577	1.504561200022	3
294	1595	1.505051200022	1
294	1616	1.505551200022	0
294	1631	1.506009200022	1
294	1654	1.506430677778	3
294	1678	1.506920677778	1
294	1697	1.50774303172	3
294	1724	1.50823303172	1
294	1742	1.510854892752	3
294	1756	1.511312892752	1
294	2122	1.558713927926	3
294	2153	1.567011927926	1
294	2501	1.635278755078	3
294	2545	1.643576755078	1
294	2783	1.686729038787	3
294	2827	1.695027038787	1
294	3124	1.835135073173	3
294	3139	1.843433073173	1
294	3406	2.034975073173	3
294	3421	2.043273073173	1
294	3610	2.135515073173	3
294	3625	2.143813073173	1
294	3880	2.334615073173	3
294	3895	2.342913073173	1
294	4051	2.384835073173	3
294	4066	2.393133073173	1
294	4585	2.985135073173	3
294	4600	2.993433073173	1
294	4801	3.084875073173	3
294	4816	3.093173073173	1
294	5290	3.534075073173	3
294	5305	3.542373073173	1
294	5494	3.634375073173	3
294	5509	3.642673073173	1
294	5698	3.734715073173	3
294	5713	3.743013073173	1
294	5902	3.834755073173	3
294	5917	3.843053073173	1
294	6073	3.885275073173	3
294	6088	3.893573073173	1
294	6277	3.983975073173	3
294	6292	3.992273073173	1
294	6493	4.084595073173	3
294	6508	4.092893073173	1
294	6697	4.185655073173	3
294	6712	4.193953073173	1
294	6868	4.235135073173	3
294	6883	4.243433073173	1
294	7072	4.334895073173	3
294	7087	4.343193073173	1
294	7243	4.384275073173	3
294	7258	4.392573073173	1
294	7447	4.485175073173	3
294	7462	4.493473073173	1
294	7651	4.584795073173	3
294	7666	4.593093073173	1
294	7822	4.634195073173	3
294	7837	4.642493073173	1
294	8026	4.734255073173	3
294	8041	4.742553073173	1
294	8197	4.784175073173	3
294	8212	4.792473073173	1
295	925	0.861475843958	1
295	926	0.861475843958	2
295	964	0.861933843958	1
295	964	0.861933843958	0
295	1616	1.505551200022	1
295	1617	1.505551200022	2
295	1631	1.506009200022	1
295	1631	1.506009200022	0
299	0	0	0
299	0	0	2
299	356	0.376561998208	3
299	369	0.377051998208	2
299	819	0.859787579584	3
299	832	0.860277579584	2
299	1479	1.50319958671	3
299	1492	1.50368958671	2
300	0	0	1
300	87	0.054380482587	3
300	102	0.054870482587	1
300	135	0.05566892252	3
300	159	0.05615892252	1
300	177	0.056786034102	3
300	201	0.057276034102	1
300	278	0.374970972933	3
300	302	0.375460972933	1
300	320	0.375791998208	3
300	346	0.376281998208	1
300	356	0.376561998208	0
300	369	0.377051998208	1
300	404	0.378097351092	3
300	418	0.378587351092	1
300	455	0.378648322238	3
300	485	0.379138322238	2
300	514	0.379248585428	1
300	526	0.379648755642	3
300	546	0.380138755642	1
300	569	0.380399152176	3
300	581	0.380889152176	1
300	694	0.855869674274	3
300	718	0.856359674274	1
300	735	0.858126852951	3
300	754	0.858616852951	1
300	785	0.859117579584	3
300	809	0.859607579584	1
300	819	0.859787579584	0
300	832	0.860277579584	1
300	873	0.860705714175	3
300	897	0.861195714175	1
300	914	0.861296241401	3
300	939	0.861786241401	1
300	983	0.862679861406	3
300	995	0.863169861406	1
300	1036	0.8646922493	2
300	1067	0.8651822493	1
300	1080	0.8653426053	2
300	1108	0.8658326053	1
300	1118	0.866232922172	3
300	1137	0.866722922172	1
300	1260	1.498426039942	3
300	1277	1.498916039942	1
300	1308	1.499036916929	3
300	1332	1.499526916929	1
300	1351	1.500007385287	3
300	1375	1.500497385287	1
300	1389	1.501870811217	3
300	1403	1.502360811217	1
300	1440	1.50258958671	3
300	1458	1.50307958671	1
300	1479	1.50319958671	0
300	1492	1.50368958671	1
300	1527	1.503910308102	3
300	1541	1.504400308102	1
300	1580	1.504561687984	2
300	1609	1.505051687984	1
300	1655	1.506430803192	2
300	1682	1.506920803192	1
300	1696	1.507742901937	3
300	1720	1.508232901937	1
300	1745	1.510855380714	2
300	1764	1.511313380714	1
300	1782	1.516391070702	3
300	1796	1.516849070702	1
300	1818	1.52181008484	3
300	1830	1.52226808484	1
300	1854	1.523160567547	3
300	1867	1.523618567547	1
300	1949	1.532918186639	3
300	1963	1.541216186639	1
300	1982	1.541276620306	3
300	2008	1.549574620306	1
300	2060	1.55007527033	3
300	2090	1.55837327033	1
300	2125	1.558714415888	2
300	2162	1.567012415888	1
300	2264	1.593205805731	3
300	2282	1.601503805731	1
300	2302	1.601723805731	3
300	2316	1.610021805731	1
300	2337	1.610202239398	3
300	2364	1.618500239398	1
300	2409	1.618820889422	3
300	2452	1.627118889422	1
300	2469	1.627179285956	3
300	2511	1.635477285956	2
300	2552	1.64357724304	1
300	2642	1.6614932975	3
300	2656	1.6697912975	1
300	2670	1.669791731167	3
300	2701	1.678089731167	1
300	2724	1.678170381191	3
300	2764	1.686468381191	1
300	2786	1.686729526749	2
300	2836	1.695027526749	1
300	3022	1.809019331886	3
300	3035	1.817317331886	1
300	3054	1.817517765553	3
300	3067	1.825815765553	1
300	3090	1.826336415577	3
300	3105	1.834634415577	1
300	3127	1.835135561135	2
300	3148	1.843433561135	1
300	3304	2.009119331886	3
300	3317	2.017417331886	1
300	3336	2.017497765553	3
300	3349	2.025795765553	1
300	3372	2.026296415577	3
300	3387	2.034594415577	1
300	3409	2.034975561135	2
300	3430	2.043273561135	1
300	3508	2.109079331886	3
300	3521	2.117377331886	1
300	3540	2.117977765553	3
300	3553	2.126275765553	1
300	3576	2.126596415577	3
300	3591	2.134894415577	1
300	3613	2.135515561135	2
300	3634	2.143813561135	1
300	3778	2.309159331886	3
300	3791	2.317457331886	1
300	3810	2.317577765553	3
300	3823	2.325875765553	1
300	3846	2.325896415577	3
300	3861	2.334194415577	1
300	3883	2.334615561135	2
300	3904	2.342913561135	1
300	3949	2.359159331886	3
300	3962	2.367457331886	1
300	3981	2.367577765553	3
300	3994	2.375875765553	1
300	4017	2.375976415577	3
300	4032	2.384274415577	1
300	4054	2.384835561135	2
300	4075	2.393133561135	1
300	4483	2.959259331886	3
300	4496	2.967557331886	1
300	4515	2.967717765553	3
300	4528	2.976015765553	1
300	4551	2.976616415577	3
300	4566	2.984914415577	1
300	4588	2.985135561135	2
300	4609	2.993433561135	1
300	4699	3.059099331886	3
300	4712	3.067397331886	1
300	4731	3.067757765553	3
300	4744	3.076055765553	1
300	4767	3.076096415577	3
300	4782	3.084394415577	1
300	4804	3.084875561135	2
300	4825	3.093173561135	1
300	5188	3.508719331886	3
300	5201	3.517017331886	1
300	5220	3.517137765553	3
300	5233	3.525435765553	1
300	5256	3.525716415577	3
300	5271	3.534014415577	1
300	5293	3.534075561135	2
300	5314	3.542373561135	1
300	5392	3.608979331886	3
300	5405	3.617277331886	1
300	5424	3.617437765553	3
300	5437	3.625735765553	1
300	5460	3.625756415577	3
300	5475	3.634054415577	1
300	5497	3.634375561135	2
300	5518	3.642673561135	1
300	5596	3.708959331886	3
300	5609	3.717257331886	1
300	5628	3.717437765553	3
300	5641	3.725735765553	1
300	5664	3.726096415577	3
300	5679	3.734394415577	1
300	5701	3.734715561135	2
300	5722	3.743013561135	1
300	5800	3.809099331886	3
300	5813	3.817397331886	1
300	5832	3.817957765553	3
300	5845	3.826255765553	1
300	5868	3.826376415577	3
300	5883	3.834674415577	1
300	5905	3.834755561135	2
300	5926	3.843053561135	1
300	5971	3.858839331886	3
300	5984	3.867137331886	1
300	6003	3.867637765553	3
300	6016	3.875935765553	1
300	6039	3.876496415577	3
300	6054	3.884794415577	1
300	6076	3.885275561135	2
300	6097	3.893573561135	1
300	6175	3.958399331886	3
300	6188	3.966697331886	1
300	6207	3.967097765553	3
300	6220	3.975395765553	1
300	6243	3.975576415577	3
300	6258	3.983874415577	1
300	6280	3.983975561135	2
300	6301	3.992273561135	1
300	6391	4.058939331886	3
300	6404	4.067237331886	1
300	6423	4.067617765553	3
300	6436	4.075915765553	1
300	6459	4.075936415577	3
300	6474	4.084234415577	1
300	6496	4.084595561135	2
300	6517	4.092893561135	1
300	6595	4.159439331886	3
300	6608	4.167737331886	1
300	6627	4.168077765553	3
300	6640	4.176375765553	1
300	6663	4.176976415577	3
300	6678	4.185274415577	1
300	6700	4.185655561135	2
300	6721	4.193953561135	1
300	6766	4.209239331886	3
300	6779	4.217537331886	1
300	6798	4.217937765553	3
300	6811	4.226235765553	1
300	6834	4.226436415577	3
300	6849	4.234734415577	1
300	6871	4.235135561135	2
300	6892	4.243433561135	1
300	6970	4.308919331886	3
300	6983	4.317217331886	1
300	7002	4.317357765553	3
300	7015	4.325655765553	1
300	7038	4.326236415577	3
300	7053	4.334534415577	1
300	7075	4.334895561135	2
300	7096	4.343193561135	1
300	7141	4.358479331886	3
300	7154	4.366777331886	1
300	7173	4.366877765553	3
300	7186	4.375175765553	1
300	7209	4.375396415577	3
300	7224	4.383694415577	1
300	7246	4.384275561135	2
300	7267	4.392573561135	1
300	7345	4.458939331886	3
300	7358	4.467237331886	1
300	7377	4.467817765553	3
300	7390	4.476115765553	1
300	7413	4.476276415577	3
300	7428	4.484574415577	1
300	7450	4.485175561135	2
300	7471	4.493473561135	1
300	7549	4.558899331886	3
300	7562	4.567197331886	1
300	7581	4.567657765553	3
300	7594	4.575955765553	1
300	7617	4.576276415577	3
300	7632	4.584574415577	1
300	7654	4.584795561135	2
300	7675	4.593093561135	1
300	7720	4.608519331886	3
300	7733	4.616817331886	1
300	7752	4.617417765553	3
300	7765	4.625715765553	1
300	7788	4.625836415577	3
300	7803	4.634134415577	1
300	7825	4.634195561135	2
300	7846	4.642493561135	1
300	7924	4.708559331886	3
300	7937	4.716857331886	1
300	7956	4.717377765553	3
300	7969	4.725675765553	1
300	7992	4.725876415577	3
300	8007	4.734174415577	1
300	8029	4.734255561135	2
300	8050	4.742553561135	1
300	8095	4.758599331886	3
300	8108	4.766897331886	1
300	8127	4.767157765553	3
300	8140	4.775455765553	1
300	8163	4.775836415577	3
300	8178	4.784134415577	1
300	8200	4.784175561135	2
300	8221	4.792473561135	1
301	356	0.376561998208	1
301	357	0.376561998208	2
301	369	0.377051998208	1
301	369	0.377051998208	0
301	819	0.859787579584	1
301	820	0.859787579584	2
301	832	0.860277579584	1
301	832	0.860277579584	0
301	1479	1.50319958671	1
301	1480	1.50319958671	2
301	1492	1.50368958671	1
301	1492	1.50368958671	0
305	0	0	0
305	0	0	2
305	467	0.378757909887	3
305	500	0.379247909887	2
305	867	0.860705038634	3
305	880	0.861195038634	2
305	1690	1.507742226396	3
305	1703	1.508232226396	2
306	0	0	1
306	362	0.376562673749	3
306	386	0.377052673749	1
306	405	0.378097392121	3
306	422	0.378587392121	1
306	467	0.378757909887	0
306	500	0.379247909887	1
306	524	0.379648662337	3
306	538	0.380138662337	1
306	575	0.380399669373	2
306	605	0.380889669373	1
306	825	0.859788255125	3
306	849	0.860278255125	1
306	867	0.860705038634	0
306	880	0.861195038634	1
306	920	0.861296758598	2
306	929	0.861476649282	3
306	969	0.861934649282	1
306	984	0.862679902435	3
306	999	0.863169902435	1
306	1031	0.864691587083	3
306	1047	0.865181587083	1
306	1075	0.865342098606	3
306	1088	0.865832098606	1
306	1116	0.866232828867	3
306	1129	0.866722828867	1
306	1395	1.501871328414	2
306	1427	1.502361328414	1
306	1438	1.502589493405	3
306	1450	1.503079493405	1
306	1485	1.503200262251	3
306	1509	1.503690262251	1
306	1528	1.503910349131	3
306	1545	1.504400349131	1
306	1575	1.504561025767	3
306	1587	1.505051025767	1
306	1620	1.505552005346	3
306	1638	1.506010005346	1
306	1650	1.506430296498	3
306	1662	1.506920296498	1
306	1690	1.507742226396	0
306	1703	1.508232226396	1
306	1740	1.510854718497	3
306	1752	1.511312718497	1
306	1780	1.516390977397	3
306	1792	1.516848977397	1
306	1824	1.521810602037	2
306	1844	1.522268602037	1
306	1988	1.541277137503	2
306	2022	1.549575137503	1
306	2058	1.550075177025	3
306	2086	1.558373177025	1
306	2120	1.558713753671	3
306	2149	1.567011753671	1
306	2345	1.610202756595	2
306	2382	1.618500756595	1
306	2407	1.618820796117	3
306	2448	1.627118796117	1
306	2475	1.627179803153	2
306	2499	1.635278580823	3
306	2541	1.643576580823	1
306	2679	1.669792248364	2
306	2715	1.678090248364	1
306	2722	1.678170287886	3
306	2760	1.686468287886	1
306	2781	1.686728864532	3
306	2823	1.695026864532	1
306	3060	1.81751828275	2
306	3081	1.82581628275	1
306	3088	1.826336322272	3
306	3101	1.834634322272	1
306	3122	1.835134898918	3
306	3135	1.843432898918	1
306	3342	2.01749828275	2
306	3363	2.02579628275	1
306	3370	2.026296322272	3
306	3383	2.034594322272	1
306	3404	2.034974898918	3
306	3417	2.043272898918	1
306	3546	2.11797828275	2
306	3567	2.12627628275	1
306	3574	2.126596322272	3
306	3587	2.134894322272	1
306	3608	2.135514898918	3
306	3621	2.143812898918	1
306	3816	2.31757828275	2
306	3837	2.32587628275	1
306	3844	2.325896322272	3
306	3857	2.334194322272	1
306	3878	2.334614898918	3
306	3891	2.342912898918	1
306	3987	2.36757828275	2
306	4008	2.37587628275	1
306	4015	2.375976322272	3
306	4028	2.384274322272	1
306	4049	2.384834898918	3
306	4062	2.393132898918	1
306	4521	2.96771828275	2
306	4542	2.97601628275	1
306	4549	2.976616322272	3
306	4562	2.984914322272	1
306	4583	2.985134898918	3
306	4596	2.993432898918	1
306	4737	3.06775828275	2
306	4758	3.07605628275	1
306	4765	3.076096322272	3
306	4778	3.084394322272	1
306	4799	3.084874898918	3
306	4812	3.093172898918	1
306	5226	3.51713828275	2
306	5247	3.52543628275	1
306	5254	3.525716322272	3
306	5267	3.534014322272	1
306	5288	3.534074898918	3
306	5301	3.542372898918	1
306	5430	3.61743828275	2
306	5451	3.62573628275	1
306	5458	3.625756322272	3
306	5471	3.634054322272	1
306	5492	3.634374898918	3
306	5505	3.642672898918	1
306	5634	3.71743828275	2
306	5655	3.72573628275	1
306	5662	3.726096322272	3
306	5675	3.734394322272	1
306	5696	3.734714898918	3
306	5709	3.743012898918	1
306	5838	3.81795828275	2
306	5859	3.82625628275	1
306	5866	3.826376322272	3
306	5879	3.834674322272	1
306	5900	3.834754898918	3
306	5913	3.843052898918	1
306	6009	3.86763828275	2
306	6030	3.87593628275	1
306	6037	3.876496322272	3
306	6050	3.884794322272	1
306	6071	3.885274898918	3
306	6084	3.893572898918	1
306	6213	3.96709828275	2
306	6234	3.97539628275	1
306	6241	3.975576322272	3
306	6254	3.983874322272	1
306	6275	3.983974898918	3
306	6288	3.992272898918	1
306	6429	4.06761828275	2
306	6450	4.07591628275	1
306	6457	4.075936322272	3
306	6470	4.084234322272	1
306	6491	4.084594898918	3
306	6504	4.092892898918	1
306	6633	4.16807828275	2
306	6654	4.17637628275	1
306	6661	4.176976322272	3
306	6674	4.185274322272	1
306	6695	4.185654898918	3
306	6708	4.193952898918	1
306	6804	4.21793828275	2
306	6825	4.22623628275	1
306	6832	4.226436322272	3
306	6845	4.234734322272	1
306	6866	4.235134898918	3
306	6879	4.243432898918	1
306	7008	4.31735828275	2
306	7029	4.32565628275	1
306	7036	4.326236322272	3
306	7049	4.334534322272	1
306	7070	4.334894898918	3
306	7083	4.343192898918	1
306	7179	4.36687828275	2
306	7200	4.37517628275	1
306	7207	4.375396322272	3
306	7220	4.383694322272	1
306	7241	4.384274898918	3
306	7254	4.392572898918	1
306	7383	4.46781828275	2
306	7404	4.47611628275	1
306	7411	4.476276322272	3
306	7424	4.484574322272	1
306	7445	4.485174898918	3
306	7458	4.493472898918	1
306	7587	4.56765828275	2
306	7608	4.57595628275	1
306	7615	4.576276322272	3
306	7628	4.584574322272	1
306	7649	4.584794898918	3
306	7662	4.593092898918	1
306	7758	4.61741828275	2
306	7779	4.62571628275	1
306	7786	4.625836322272	3
306	7799	4.634134322272	1
306	7820	4.634194898918	3
306	7833	4.642492898918	1
306	7962	4.71737828275	2
306	7983	4.72567628275	1
306	7990	4.725876322272	3
306	8003	4.734174322272	1
306	8024	4.734254898918	3
306	8037	4.742552898918	1
306	8133	4.76715828275	2
306	8154	4.77545628275	1
306	8161	4.775836322272	3
306	8174	4.784134322272	1
306	8195	4.784174898918	3
306	8208	4.792472898918	1
307	467	0.378757909887	1
307	468	0.378757909887	2
307	500	0.379247909887	1
307	500	0.379247909887	0
307	867	0.860705038634	1
307	868	0.860705038634	2
307	880	0.861195038634	1
307	880	0.861195038634	0
307	1690	1.507742226396	1
307	1691	1.507742226396	2
307	1703	1.508232226396	1
307	1703	1.508232226396	0
311	0	0	0
311	0	0	2
311	129	0.055668194923	3
311	142	0.056158194923	2
311	314	0.375791270611	3
311	329	0.376281270611	2
311	688	0.855868946677	3
311	701	0.856358946677	2
311	1302	1.499036189332	3
311	1315	1.499526189332	2
312	0	0	1
312	51	0.051002402104	3
312	66	0.051492402104	1
312	89	0.054380631977	3
312	110	0.054870631977	1
312	129	0.055668194923	0
312	142	0.056158194923	1
312	174	0.056785637925	3
312	189	0.057275637925	1
312	239	0.373188825721	3
312	254	0.373678825721	1
312	275	0.374970576756	3
312	290	0.375460576756	1
312	314	0.375791270611	0
312	329	0.376281270611	1
312	363	0.376562725805	3
312	390	0.377052725805	1
312	457	0.378648471628	3
312	489	0.379138471628	1
312	530	0.379649241059	2
312	562	0.380139241059	1
312	570	0.380399251668	3
312	585	0.380889251668	1
312	655	0.854920373212	3
312	670	0.855410373212	1
312	688	0.855868946677	0
312	701	0.856358946677	1
312	737	0.858127002341	3
312	762	0.858617002341	1
312	782	0.859117183407	3
312	797	0.859607183407	1
312	826	0.859788307181	3
312	853	0.860278307181	1
312	915	0.861296340893	3
312	943	0.861786340893	1
312	1122	0.866233407589	2
312	1153	0.866723407589	1
312	1222	1.494689325015	3
312	1237	1.495179325015	1
312	1262	1.498426189332	3
312	1285	1.498916189332	1
312	1302	1.499036189332	0
312	1315	1.499526189332	1
312	1348	1.50000698911	3
312	1363	1.50049698911	1
312	1390	1.501870910709	3
312	1407	1.502360910709	1
312	1444	1.502590072127	2
312	1474	1.503080072127	1
312	1486	1.503200314307	3
312	1513	1.503690314307	1
312	1786	1.516391556119	2
312	1806	1.516849556119	1
312	1819	1.521810184332	3
312	1832	1.522268184332	1
312	1856	1.523160716937	3
312	1871	1.523618716937	1
312	1917	1.52403950297	3
312	1932	1.53233750297	1
312	1951	1.532918336029	3
312	1969	1.541216336029	1
312	1983	1.541276719798	3
312	2010	1.549574719798	2
312	2029	1.549915122062	1
312	2046	1.550055122062	3
312	2073	1.558353122062	2
312	2100	1.558373755747	1
312	2108	1.558413122062	3
312	2136	1.566711122062	1
312	2171	1.567111122062	3
312	2186	1.575409122062	1
312	2203	1.575829122062	3
312	2218	1.584127122062	1
312	2233	1.584547122062	3
312	2247	1.592845122062	1
312	2266	1.593205955121	3
312	2288	1.601503955121	1
312	2304	1.601723955121	3
312	2322	1.610021955121	1
312	2338	1.61020233889	3
312	2366	1.61850033889	2
312	2381	1.618500741154	3
312	2422	1.626798741154	2
312	2437	1.626878741154	3
312	2485	1.635176741154	2
312	2513	1.635477385448	1
312	2528	1.635918613831	3
312	2564	1.644216613831	2
312	2565	1.644216613831	3
312	2595	1.652514613831	1
312	2610	1.652974613831	3
312	2625	1.661272613831	1
312	2644	1.66149344689	3
312	2664	1.66979144689	1
312	2672	1.669791830659	3
312	2703	1.678089830659	2
312	2748	1.678710232923	3
312	2798	1.687008232923	2
312	2799	1.687008232923	3
312	2845	1.695306232923	1
312	2860	1.695386232923	3
312	2879	1.703684232923	1
312	2894	1.704204232923	3
312	2909	1.712502232923	1
312	2924	1.712842232923	3
312	2938	1.721140232923	1
312	2959	1.750380648217	3
312	2972	1.758678648217	1
312	2992	1.800460648217	3
312	3005	1.808758648217	1
312	3024	1.809019481276	3
312	3041	1.817317481276	1
312	3055	1.817517865045	3
312	3069	1.825815865045	1
312	3094	1.826336900994	2
312	3115	1.834634900994	1
312	3162	1.850140648217	3
312	3176	1.858438648217	1
312	3196	1.900300648217	3
312	3209	1.908598648217	1
312	3229	1.950340648217	3
312	3242	1.958638648217	1
312	3274	2.000560648217	3
312	3287	2.008858648217	1
312	3306	2.009119481276	3
312	3323	2.017417481276	1
312	3337	2.017497865045	3
312	3351	2.025795865045	1
312	3376	2.026296900994	2
312	3397	2.034594900994	1
312	3444	2.050180648217	3
312	3458	2.058478648217	1
312	3478	2.100380648217	3
312	3491	2.108678648217	1
312	3510	2.109079481276	3
312	3527	2.117377481276	1
312	3541	2.117977865045	3
312	3555	2.126275865045	1
312	3580	2.126596900994	2
312	3601	2.134894900994	1
312	3648	2.150300648217	3
312	3662	2.158598648217	1
312	3682	2.200340648217	3
312	3695	2.208638648217	1
312	3715	2.250060648217	3
312	3728	2.258358648217	1
312	3748	2.300340648217	3
312	3761	2.308638648217	1
312	3780	2.309159481276	3
312	3797	2.317457481276	1
312	3811	2.317577865045	3
312	3825	2.325875865045	1
312	3850	2.325896900994	2
312	3871	2.334194900994	1
312	3918	2.350440648217	3
312	3932	2.358738648217	1
312	3951	2.359159481276	3
312	3968	2.367457481276	1
312	3982	2.367577865045	3
312	3996	2.375875865045	1
312	4021	2.375976900994	2
312	4042	2.384274900994	1
312	4089	2.400120648217	3
312	4103	2.408418648217	1
312	4123	2.450540648217	3
312	4136	2.458838648217	1
312	4156	2.500280648217	3
312	4169	2.508578648217	1
312	4189	2.550240648217	3
312	4202	2.558538648217	1
312	4222	2.600180648217	3
312	4235	2.608478648217	1
312	4255	2.650340648217	3
312	4268	2.658638648217	1
312	4288	2.700500648217	3
312	4301	2.708798648217	1
312	4321	2.750600648217	3
312	4334	2.758898648217	1
312	4354	2.800600648217	3
312	4367	2.808898648217	1
312	4387	2.850180648217	3
312	4400	2.858478648217	1
312	4420	2.900440648217	3
312	4433	2.908738648217	1
312	4453	2.950380648217	3
312	4466	2.958678648217	1
312	4485	2.959259481276	3
312	4502	2.967557481276	1
312	4516	2.967717865045	3
312	4530	2.976015865045	1
312	4555	2.976616900994	2
312	4576	2.984914900994	1
312	4635	3.000360648217	3
312	4649	3.008658648217	1
312	4669	3.050440648217	3
312	4682	3.058738648217	1
312	4701	3.059099481276	3
312	4718	3.067397481276	1
312	4732	3.067757865045	3
312	4746	3.076055865045	1
312	4771	3.076096900994	2
312	4792	3.084394900994	1
312	4839	3.100060648217	3
312	4853	3.108358648217	1
312	4873	3.150380648217	3
312	4886	3.158678648217	1
312	4906	3.200560648217	3
312	4919	3.208858648217	1
312	4939	3.250560648217	3
312	4952	3.258858648217	1
312	4972	3.300260648217	3
312	4985	3.308558648217	1
312	5005	3.350420648217	3
312	5018	3.358718648217	1
312	5038	3.400260648217	3
312	5051	3.408558648217	1
312	5071	3.450500648217	3
312	5084	3.458798648217	1
312	5114	3.500320648217	3
312	5171	3.508618648217	1
312	5190	3.508719481276	3
312	5207	3.517017481276	1
312	5221	3.517137865045	3
312	5235	3.525435865045	1
312	5260	3.525716900994	2
312	5281	3.534014900994	1
312	5328	3.550580648217	3
312	5342	3.558878648217	1
312	5362	3.600080648217	3
312	5375	3.608378648217	1
312	5394	3.608979481276	3
312	5411	3.617277481276	1
312	5425	3.617437865045	3
312	5439	3.625735865045	1
312	5464	3.625756900994	2
312	5485	3.634054900994	1
312	5532	3.650440648217	3
312	5546	3.658738648217	1
312	5566	3.700380648217	3
312	5579	3.708678648217	1
312	5598	3.708959481276	3
312	5615	3.717257481276	1
312	5629	3.717437865045	3
312	5643	3.725735865045	1
312	5668	3.726096900994	2
312	5689	3.734394900994	1
312	5736	3.750340648217	3
312	5750	3.758638648217	1
312	5770	3.800400648217	3
312	5783	3.808698648217	1
312	5802	3.809099481276	3
312	5819	3.817397481276	1
312	5833	3.817957865045	3
312	5847	3.826255865045	1
312	5872	3.826376900994	2
312	5893	3.834674900994	1
312	5940	3.850020648217	3
312	5954	3.858318648217	1
312	5973	3.858839481276	3
312	5990	3.867137481276	1
312	6004	3.867637865045	3
312	6018	3.875935865045	1
312	6043	3.876496900994	2
312	6064	3.884794900994	1
312	6111	3.900000648217	3
312	6125	3.908298648217	1
312	6145	3.950060648217	3
312	6158	3.958358648217	1
312	6177	3.958399481276	3
312	6194	3.966697481276	1
312	6208	3.967097865045	3
312	6222	3.975395865045	1
312	6247	3.975576900994	2
312	6268	3.983874900994	1
312	6327	4.000120648217	3
312	6341	4.008418648217	1
312	6361	4.050600648217	3
312	6374	4.058898648217	1
312	6393	4.058939481276	3
312	6410	4.067237481276	1
312	6424	4.067617865045	3
312	6438	4.075915865045	1
312	6463	4.075936900994	2
312	6484	4.084234900994	1
312	6531	4.100420648217	3
312	6545	4.108718648217	1
312	6565	4.150520648217	3
312	6578	4.158818648217	1
312	6597	4.159439481276	3
312	6614	4.167737481276	1
312	6628	4.168077865045	3
312	6642	4.176375865045	1
312	6667	4.176976900994	2
312	6688	4.185274900994	1
312	6735	4.200560648217	3
312	6749	4.208858648217	1
312	6768	4.209239481276	3
312	6785	4.217537481276	1
312	6799	4.217937865045	3
312	6813	4.226235865045	1
312	6838	4.226436900994	2
312	6859	4.234734900994	1
312	6906	4.250340648217	3
312	6920	4.258638648217	1
312	6940	4.300600648217	3
312	6953	4.308898648217	1
312	6972	4.308919481276	3
312	6989	4.317217481276	1
312	7003	4.317357865045	3
312	7017	4.325655865045	1
312	7042	4.326236900994	2
312	7063	4.334534900994	1
312	7110	4.350040648217	3
312	7124	4.358338648217	1
312	7143	4.358479481276	3
312	7160	4.366777481276	1
312	7174	4.366877865045	3
312	7188	4.375175865045	1
312	7213	4.375396900994	2
312	7234	4.383694900994	1
312	7281	4.400600648217	3
312	7295	4.408898648217	1
312	7315	4.450200648217	3
312	7328	4.458498648217	1
312	7347	4.458939481276	3
312	7364	4.467237481276	1
312	7378	4.467817865045	3
312	7392	4.476115865045	1
312	7417	4.476276900994	2
312	7438	4.484574900994	1
312	7485	4.500020648217	3
312	7499	4.508318648217	1
312	7519	4.550100648217	3
312	7532	4.558398648217	1
312	7551	4.558899481276	3
312	7568	4.567197481276	1
312	7582	4.567657865045	3
312	7596	4.575955865045	1
312	7621	4.576276900994	2
312	7642	4.584574900994	1
312	7689	4.600140648217	3
312	7703	4.608438648217	1
312	7722	4.608519481276	3
312	7739	4.616817481276	1
312	7753	4.617417865045	3
312	7767	4.625715865045	1
312	7792	4.625836900994	2
312	7813	4.634134900994	1
312	7860	4.650460648217	3
312	7874	4.658758648217	1
312	7894	4.700040648217	3
312	7907	4.708338648217	1
312	7926	4.708559481276	3
312	7943	4.716857481276	1
312	7957	4.717377865045	3
312	7971	4.725675865045	1
312	7996	4.725876900994	2
312	8017	4.734174900994	1
312	8064	4.750280648217	3
312	8078	4.758578648217	1
312	8097	4.758599481276	3
312	8114	4.766897481276	1
312	8128	4.767157865045	3
312	8142	4.775455865045	1
312	8167	4.775836900994	2
312	8188	4.784134900994	1
312	8235	4.800400648217	3
312	8249	4.808698648217	1
313	129	0.055668194923	1
313	130	0.055668194923	2
313	142	0.056158194923	1
313	142	0.056158194923	0
313	314	0.375791270611	1
313	315	0.375791270611	2
313	329	0.376281270611	1
313	329	0.376281270611	0
313	688	0.855868946677	1
313	689	0.855868946677	2
313	701	0.856358946677	1
313	701	0.856358946677	0
313	1302	1.499036189332	1
313	1303	1.499036189332	2
313	1315	1.499526189332	1
313	1315	1.499526189332	0
317	0	0	0
317	0	0	2
317	567	0.380398809391	3
317	580	0.380888809391	2
317	912	0.861295898616	3
317	938	0.861785898616	2
317	1387	1.501870468432	3
317	1402	1.502360468432	2
317	1816	1.521809742055	3
317	1829	1.522267742055	2
317	1980	1.541276277521	3
317	2007	1.549574277521	2
317	2333	1.610201896613	3
317	2360	1.618499896613	2
317	2467	1.627178943171	3
317	2510	1.635476943171	2
317	2662	1.669791388382	3
317	2700	1.678089388382	2
317	3052	1.817517422768	3
317	3066	1.825815422768	2
317	3334	2.017497422768	3
317	3348	2.025795422768	2
317	3538	2.117977422768	3
317	3552	2.126275422768	2
317	3808	2.317577422768	3
317	3822	2.325875422768	2
317	3979	2.367577422768	3
317	3993	2.375875422768	2
317	4513	2.967717422768	3
317	4527	2.976015422768	2
317	4729	3.067757422768	3
317	4743	3.076055422768	2
317	5218	3.517137422768	3
317	5232	3.525435422768	2
317	5422	3.617437422768	3
317	5436	3.625735422768	2
317	5626	3.717437422768	3
317	5640	3.725735422768	2
317	5830	3.817957422768	3
317	5844	3.826255422768	2
317	6001	3.867637422768	3
317	6015	3.875935422768	2
317	6205	3.967097422768	3
317	6219	3.975395422768	2
317	6421	4.067617422768	3
317	6435	4.075915422768	2
317	6625	4.168077422768	3
317	6639	4.176375422768	2
317	6796	4.217937422768	3
317	6810	4.226235422768	2
317	7000	4.317357422768	3
317	7014	4.325655422768	2
317	7171	4.366877422768	3
317	7185	4.375175422768	2
317	7375	4.467817422768	3
317	7389	4.476115422768	2
317	7579	4.567657422768	3
317	7593	4.575955422768	2
317	7750	4.617417422768	3
317	7764	4.625715422768	2
317	7954	4.717377422768	3
317	7968	4.725675422768	2
317	8125	4.767157422768	3
317	8139	4.775455422768	2
318	0	0	1
318	88	0.054380573469	3
318	106	0.054870573469	1
318	132	0.0556686372	3
318	147	0.0561586372	1
318	176	0.056785901273	3
318	197	0.057275901273	1
318	277	0.374970840104	3
318	298	0.375460840104	1
318	317	0.375791712888	3
318	334	0.376281712888	1
318	358	0.376562340993	3
318	370	0.377052340993	1
318	408	0.378097651992	3
318	434	0.378587651992	1
318	456	0.37864841312	3
318	487	0.37913841312	2
318	517	0.379248769869	1
318	527	0.379648809391	3
318	550	0.380138809391	1
318	567	0.380398809391	0
318	580	0.380888809391	1
318	691	0.855869388954	3
318	706	0.856359388954	1
318	736	0.858126943833	3
318	758	0.858616943833	1
318	784	0.859117446755	3
318	805	0.859607446755	1
318	821	0.859787922369	3
318	833	0.860277922369	1
318	875	0.860705898616	2
318	907	0.861195898616	1
318	912	0.861295898616	0
318	938	0.861785898616	1
318	987	0.862680162306	3
318	1011	0.863170162306	1
318	1119	0.866232975921	3
318	1141	0.866722975921	1
318	1261	1.498426130824	3
318	1281	1.498916130824	1
318	1305	1.499036631609	3
318	1320	1.499526631609	1
318	1350	1.500007252458	3
318	1371	1.500497252458	1
318	1387	1.501870468432	0
318	1402	1.502360468432	1
318	1441	1.502589640459	3
318	1462	1.503079640459	1
318	1481	1.503199929495	3
318	1493	1.503689929495	1
318	1531	1.503910609002	3
318	1557	1.504400609002	1
318	1698	1.507743086378	2
318	1728	1.508233086378	1
318	1783	1.516391124451	3
318	1798	1.516849124451	1
318	1816	1.521809742055	0
318	1829	1.522267742055	1
318	1855	1.523160658429	3
318	1869	1.523618658429	1
318	1950	1.532918277521	3
318	1965	1.541216277521	1
318	1980	1.541276277521	0
318	2007	1.549574277521	1
318	2061	1.550075324079	3
318	2092	1.558373324079	1
318	2126	1.558714550774	2
318	2140	1.566711496288	1
318	2265	1.593205896613	3
318	2284	1.601503896613	1
318	2303	1.601723896613	3
318	2318	1.610021896613	1
318	2333	1.610201896613	0
318	2360	1.618499896613	1
318	2410	1.618820943171	3
318	2454	1.627118943171	1
318	2467	1.627178943171	0
318	2510	1.635476943171	1
318	2530	1.635918988057	2
318	2553	1.643577377926	1
318	2643	1.661493388382	3
318	2658	1.669791388382	1
318	2662	1.669791388382	0
318	2700	1.678089388382	1
318	2725	1.67817043494	3
318	2766	1.68646843494	1
318	2787	1.686729661635	2
318	2837	1.695027661635	1
318	3023	1.809019422768	3
318	3037	1.817317422768	1
318	3052	1.817517422768	0
318	3066	1.825815422768	1
318	3091	1.826336469326	3
318	3107	1.834634469326	1
318	3305	2.009119422768	3
318	3319	2.017417422768	1
318	3334	2.017497422768	0
318	3348	2.025795422768	1
318	3373	2.026296469326	3
318	3389	2.034594469326	1
318	3509	2.109079422768	3
318	3523	2.117377422768	1
318	3538	2.117977422768	0
318	3552	2.126275422768	1
318	3577	2.126596469326	3
318	3593	2.134894469326	1
318	3779	2.309159422768	3
318	3793	2.317457422768	1
318	3808	2.317577422768	0
318	3822	2.325875422768	1
318	3847	2.325896469326	3
318	3863	2.334194469326	1
318	3950	2.359159422768	3
318	3964	2.367457422768	1
318	3979	2.367577422768	0
318	3993	2.375875422768	1
318	4018	2.375976469326	3
318	4034	2.384274469326	1
318	4484	2.959259422768	3
318	4498	2.967557422768	1
318	4513	2.967717422768	0
318	4527	2.976015422768	1
318	4552	2.976616469326	3
318	4568	2.984914469326	1
318	4700	3.059099422768	3
318	4714	3.067397422768	1
318	4729	3.067757422768	0
318	4743	3.076055422768	1
318	4768	3.076096469326	3
318	4784	3.084394469326	1
318	5189	3.508719422768	3
318	5203	3.517017422768	1
318	5218	3.517137422768	0
318	5232	3.525435422768	1
318	5257	3.525716469326	3
318	5273	3.534014469326	1
318	5393	3.608979422768	3
318	5407	3.617277422768	1
318	5422	3.617437422768	0
318	5436	3.625735422768	1
318	5461	3.625756469326	3
318	5477	3.634054469326	1
318	5597	3.708959422768	3
318	5611	3.717257422768	1
318	5626	3.717437422768	0
318	5640	3.725735422768	1
318	5665	3.726096469326	3
318	5681	3.734394469326	1
318	5801	3.809099422768	3
318	5815	3.817397422768	1
318	5830	3.817957422768	0
318	5844	3.826255422768	1
318	5869	3.826376469326	3
318	5885	3.834674469326	1
318	5972	3.858839422768	3
318	5986	3.867137422768	1
318	6001	3.867637422768	0
318	6015	3.875935422768	1
318	6040	3.876496469326	3
318	6056	3.884794469326	1
318	6176	3.958399422768	3
318	6190	3.966697422768	1
318	6205	3.967097422768	0
318	6219	3.975395422768	1
318	6244	3.975576469326	3
318	6260	3.983874469326	1
318	6392	4.058939422768	3
318	6406	4.067237422768	1
318	6421	4.067617422768	0
318	6435	4.075915422768	1
318	6460	4.075936469326	3
318	6476	4.084234469326	1
318	6596	4.159439422768	3
318	6610	4.167737422768	1
318	6625	4.168077422768	0
318	6639	4.176375422768	1
318	6664	4.176976469326	3
318	6680	4.185274469326	1
318	6767	4.209239422768	3
318	6781	4.217537422768	1
318	6796	4.217937422768	0
318	6810	4.226235422768	1
318	6835	4.226436469326	3
318	6851	4.234734469326	1
318	6971	4.308919422768	3
318	6985	4.317217422768	1
318	7000	4.317357422768	0
318	7014	4.325655422768	1
318	7039	4.326236469326	3
318	7055	4.334534469326	1
318	7142	4.358479422768	3
318	7156	4.366777422768	1
318	7171	4.366877422768	0
318	7185	4.375175422768	1
318	7210	4.375396469326	3
318	7226	4.383694469326	1
318	7346	4.458939422768	3
318	7360	4.467237422768	1
318	7375	4.467817422768	0
318	7389	4.476115422768	1
318	7414	4.476276469326	3
318	7430	4.484574469326	1
318	7550	4.558899422768	3
318	7564	4.567197422768	1
318	7579	4.567657422768	0
318	7593	4.575955422768	1
318	7618	4.576276469326	3
318	7634	4.584574469326	1
318	7721	4.608519422768	3
318	7735	4.616817422768	1
318	7750	4.617417422768	0
318	7764	4.625715422768	1
318	7789	4.625836469326	3
318	7805	4.634134469326	1
318	7925	4.708559422768	3
318	7939	4.716857422768	1
318	7954	4.717377422768	0
318	7968	4.725675422768	1
318	7993	4.725876469326	3
318	8009	4.734174469326	1
318	8096	4.758599422768	3
318	8110	4.766897422768	1
318	8125	4.767157422768	0
318	8139	4.775455422768	1
318	8164	4.775836469326	3
318	8180	4.784134469326	1
319	567	0.380398809391	1
319	568	0.380398809391	2
319	580	0.380888809391	1
319	580	0.380888809391	0
319	912	0.861295898616	1
319	913	0.861295898616	2
319	938	0.861785898616	1
319	938	0.861785898616	0
319	1387	1.501870468432	1
319	1388	1.501870468432	2
319	1402	1.502360468432	1
319	1402	1.502360468432	0
319	1816	1.521809742055	1
319	1817	1.521809742055	2
319	1829	1.522267742055	1
319	1829	1.522267742055	0
319	1980	1.541276277521	1
319	1981	1.541276277521	2
319	2007	1.549574277521	1
319	2007	1.549574277521	0
319	2333	1.610201896613	1
319	2334	1.610201896613	2
319	2360	1.618499896613	1
319	2360	1.618499896613	0
319	2467	1.627178943171	1
319	2468	1.627178943171	2
319	2510	1.635476943171	1
319	2510	1.635476943171	0
319	2662	1.669791388382	1
319	2663	1.669791388382	2
319	2700	1.678089388382	1
319	2700	1.678089388382	0
319	3052	1.817517422768	1
319	3053	1.817517422768	2
319	3066	1.825815422768	1
319	3066	1.825815422768	0
319	3334	2.017497422768	1
319	3335	2.017497422768	2
319	3348	2.025795422768	1
319	3348	2.025795422768	0
319	3538	2.117977422768	1
319	3539	2.117977422768	2
319	3552	2.126275422768	1
319	3552	2.126275422768	0
319	3808	2.317577422768	1
319	3809	2.317577422768	2
319	3822	2.325875422768	1
319	3822	2.325875422768	0
319	3979	2.367577422768	1
319	3980	2.367577422768	2
319	3993	2.375875422768	1
319	3993	2.375875422768	0
319	4513	2.967717422768	1
319	4514	2.967717422768	2
319	4527	2.976015422768	1
319	4527	2.976015422768	0
319	4729	3.067757422768	1
319	4730	3.067757422768	2
319	4743	3.076055422768	1
319	4743	3.076055422768	0
319	5218	3.517137422768	1
319	5219	3.517137422768	2
319	5232	3.525435422768	1
319	5232	3.525435422768	0
319	5422	3.617437422768	1
319	5423	3.617437422768	2
319	5436	3.625735422768	1
319	5436	3.625735422768	0
319	5626	3.717437422768	1
319	5627	3.717437422768	2
319	5640	3.725735422768	1
319	5640	3.725735422768	0
319	5830	3.817957422768	1
319	5831	3.817957422768	2
319	5844	3.826255422768	1
319	5844	3.826255422768	0
319	6001	3.867637422768	1
319	6002	3.867637422768	2
319	6015	3.875935422768	1
319	6015	3.875935422768	0
319	6205	3.967097422768	1
319	6206	3.967097422768	2
319	6219	3.975395422768	1
319	6219	3.975395422768	0
319	6421	4.067617422768	1
319	6422	4.067617422768	2
319	6435	4.075915422768	1
319	6435	4.075915422768	0
319	6625	4.168077422768	1
319	6626	4.168077422768	2
319	6639	4.176375422768	1
319	6639	4.176375422768	0
319	6796	4.217937422768	1
319	6797	4.217937422768	2
319	6810	4.226235422768	1
319	6810	4.226235422768	0
319	7000	4.317357422768	1
319	7001	4.317357422768	2
319	7014	4.325655422768	1
319	7014	4.325655422768	0
319	7171	4.366877422768	1
319	7172	4.366877422768	2
319	7185	4.375175422768	1
319	7185	4.375175422768	0
319	7375	4.467817422768	1
319	7376	4.467817422768	2
319	7389	4.476115422768	1
319	7389	4.476115422768	0
319	7579	4.567657422768	1
319	7580	4.567657422768	2
319	7593	4.575955422768	1
319	7593	4.575955422768	0
319	7750	4.617417422768	1
319	7751	4.617417422768	2
319	7764	4.625715422768	1
319	7764	4.625715422768	0
319	7954	4.717377422768	1
319	7955	4.717377422768	2
319	7968	4.725675422768	1
319	7968	4.725675422768	0
319	8125	4.767157422768	1
319	8126	4.767157422768	2
319	8139	4.775455422768	1
319	8139	4.775455422768	0
323	0	0	0
323	0	0	2
323	84	0.054379960247	3
323	97	0.054869960247	2
323	452	0.378647799898	3
323	480	0.379137799898	2
323	732	0.858126330611	3
323	749	0.858616330611	2
323	1257	1.498425517602	3
323	1272	1.498915517602	2
323	1851	1.523160045207	3
323	1864	1.523618045207	2
323	1946	1.532917664299	3
323	1960	1.541215664299	2
323	2261	1.593205283391	3
323	2279	1.601503283391	2
323	2299	1.601723283391	3
323	2313	1.610021283391	2
323	2639	1.66149277516	3
323	2653	1.66979077516	2
323	3019	1.809018809546	3
323	3032	1.817316809546	2
323	3301	2.009118809546	3
323	3314	2.017416809546	2
323	3505	2.109078809546	3
323	3518	2.117376809546	2
323	3775	2.309158809546	3
323	3788	2.317456809546	2
323	3946	2.359158809546	3
323	3959	2.367456809546	2
323	4480	2.959258809546	3
323	4493	2.967556809546	2
323	4696	3.059098809546	3
323	4709	3.067396809546	2
323	5185	3.508718809546	3
323	5198	3.517016809546	2
323	5389	3.608978809546	3
323	5402	3.617276809546	2
323	5593	3.708958809546	3
323	5606	3.717256809546	2
323	5797	3.809098809546	3
323	5810	3.817396809546	2
323	5968	3.858838809546	3
323	5981	3.867136809546	2
323	6172	3.958398809546	3
323	6185	3.966696809546	2
323	6388	4.058938809546	3
323	6401	4.067236809546	2
323	6592	4.159438809546	3
323	6605	4.167736809546	2
323	6763	4.209238809546	3
323	6776	4.217536809546	2
323	6967	4.308918809546	3
323	6980	4.317216809546	2
323	7138	4.358478809546	3
323	7151	4.366776809546	2
323	7342	4.458938809546	3
323	7355	4.467236809546	2
323	7546	4.558898809546	3
323	7559	4.567196809546	2
323	7717	4.608518809546	3
323	7730	4.616816809546	2
323	7921	4.708558809546	3
323	7934	4.716856809546	2
323	8092	4.758598809546	3
323	8105	4.766896809546	2
323	8263	4.809078809546	3
324	0	0	1
324	52	0.051002563433	3
324	70	0.051492563433	1
324	84	0.054379960247	0
324	97	0.054869960247	1
324	134	0.055668866653	3
324	155	0.056158866653	1
324	175	0.056785690943	3
324	193	0.057275690943	1
324	240	0.37318898705	3
324	258	0.37367898705	1
324	276	0.374970629774	3
324	294	0.375460629774	1
324	319	0.375791942341	3
324	342	0.376281942341	1
324	361	0.376562520548	3
324	382	0.377052520548	1
324	410	0.378097799898	3
324	442	0.378587799898	1
324	452	0.378647799898	0
324	480	0.379137799898	1
324	531	0.379649270837	2
324	563	0.380139270837	1
324	572	0.380399422613	3
324	593	0.380889422613	1
324	656	0.854920534541	3
324	674	0.855410534541	1
324	693	0.855869618407	3
324	714	0.856359618407	1
324	732	0.858126330611	0
324	749	0.858616330611	1
324	783	0.859117236425	3
324	801	0.859607236425	1
324	824	0.859788101924	3
324	845	0.860278101924	1
324	917	0.861296511838	3
324	949	0.861786511838	1
324	989	0.862680310212	3
324	1019	0.863170310212	1
324	1123	0.866233437367	2
324	1154	0.866723437367	1
324	1223	1.494689486344	3
324	1241	1.495179486344	1
324	1257	1.498425517602	0
324	1272	1.498915517602	1
324	1307	1.499036861062	3
324	1328	1.499526861062	1
324	1349	1.500007042128	3
324	1367	1.500497042128	1
324	1392	1.501871081654	3
324	1415	1.502361081654	1
324	1445	1.502590101905	2
324	1475	1.503080101905	1
324	1484	1.50320010905	3
324	1505	1.50369010905	1
324	1533	1.503910756908	3
324	1565	1.504400756908	1
324	1787	1.516391585897	2
324	1807	1.516849585897	1
324	1821	1.521810355277	3
324	1836	1.522268355277	1
324	1851	1.523160045207	0
324	1864	1.523618045207	1
324	1918	1.524039664299	3
324	1934	1.532337664299	1
324	1946	1.532917664299	0
324	1960	1.541215664299	1
324	1985	1.541276890743	3
324	2016	1.549574890743	2
324	2030	1.549915283391	1
324	2047	1.550055283391	3
324	2075	1.558353283391	2
324	2101	1.558373785525	1
324	2109	1.558413283391	3
324	2138	1.566711283391	1
324	2172	1.567111283391	3
324	2188	1.575409283391	1
324	2204	1.575829283391	3
324	2220	1.584127283391	1
324	2234	1.584547283391	3
324	2249	1.592845283391	1
324	2261	1.593205283391	0
324	2279	1.601503283391	1
324	2299	1.601723283391	0
324	2313	1.610021283391	1
324	2341	1.610202509835	3
324	2375	1.618500509835	2
324	2384	1.618500902483	3
324	2424	1.626798902483	2
324	2438	1.626878902483	3
324	2487	1.635176902483	2
324	2516	1.635477556393	1
324	2529	1.63591877516	3
324	2567	1.64421677516	2
324	2568	1.64421677516	3
324	2597	1.65251477516	1
324	2611	1.65297477516	3
324	2627	1.66127277516	1
324	2639	1.66149277516	0
324	2653	1.66979077516	1
324	2675	1.669792001604	3
324	2709	1.678090001604	2
324	2749	1.678710394252	3
324	2801	1.687008394252	2
324	2802	1.687008394252	3
324	2847	1.695306394252	1
324	2861	1.695386394252	3
324	2881	1.703684394252	1
324	2895	1.704204394252	3
324	2911	1.712502394252	1
324	2925	1.712842394252	3
324	2940	1.721140394252	1
324	2960	1.750380809546	3
324	2974	1.758678809546	1
324	2993	1.800460809546	3
324	3007	1.808758809546	1
324	3019	1.809018809546	0
324	3032	1.817316809546	1
324	3057	1.81751803599	3
324	3075	1.82581603599	1
324	3095	1.826336930772	2
324	3116	1.834634930772	1
324	3163	1.850140809546	3
324	3178	1.858438809546	1
324	3197	1.900300809546	3
324	3211	1.908598809546	1
324	3230	1.950340809546	3
324	3244	1.958638809546	1
324	3275	2.000560809546	3
324	3289	2.008858809546	1
324	3301	2.009118809546	0
324	3314	2.017416809546	1
324	3339	2.01749803599	3
324	3357	2.02579603599	1
324	3377	2.026296930772	2
324	3398	2.034594930772	1
324	3445	2.050180809546	3
324	3460	2.058478809546	1
324	3479	2.100380809546	3
324	3493	2.108678809546	1
324	3505	2.109078809546	0
324	3518	2.117376809546	1
324	3543	2.11797803599	3
324	3561	2.12627603599	1
324	3581	2.126596930772	2
324	3602	2.134894930772	1
324	3649	2.150300809546	3
324	3664	2.158598809546	1
324	3683	2.200340809546	3
324	3697	2.208638809546	1
324	3716	2.250060809546	3
324	3730	2.258358809546	1
324	3749	2.300340809546	3
324	3763	2.308638809546	1
324	3775	2.309158809546	0
324	3788	2.317456809546	1
324	3813	2.31757803599	3
324	3831	2.32587603599	1
324	3851	2.325896930772	2
324	3872	2.334194930772	1
324	3919	2.350440809546	3
324	3934	2.358738809546	1
324	3946	2.359158809546	0
324	3959	2.367456809546	1
324	3984	2.36757803599	3
324	4002	2.37587603599	1
324	4022	2.375976930772	2
324	4043	2.384274930772	1
324	4090	2.400120809546	3
324	4105	2.408418809546	1
324	4124	2.450540809546	3
324	4138	2.458838809546	1
324	4157	2.500280809546	3
324	4171	2.508578809546	1
324	4190	2.550240809546	3
324	4204	2.558538809546	1
324	4223	2.600180809546	3
324	4237	2.608478809546	1
324	4256	2.650340809546	3
324	4270	2.658638809546	1
324	4289	2.700500809546	3
324	4303	2.708798809546	1
324	4322	2.750600809546	3
324	4336	2.758898809546	1
324	4355	2.800600809546	3
324	4369	2.808898809546	1
324	4388	2.850180809546	3
324	4402	2.858478809546	1
324	4421	2.900440809546	3
324	4435	2.908738809546	1
324	4454	2.950380809546	3
324	4468	2.958678809546	1
324	4480	2.959258809546	0
324	4493	2.967556809546	1
324	4518	2.96771803599	3
324	4536	2.97601603599	1
324	4556	2.976616930772	2
324	4577	2.984914930772	1
324	4636	3.000360809546	3
324	4651	3.008658809546	1
324	4670	3.050440809546	3
324	4684	3.058738809546	1
324	4696	3.059098809546	0
324	4709	3.067396809546	1
324	4734	3.06775803599	3
324	4752	3.07605603599	1
324	4772	3.076096930772	2
324	4793	3.084394930772	1
324	4840	3.100060809546	3
324	4855	3.108358809546	1
324	4874	3.150380809546	3
324	4888	3.158678809546	1
324	4907	3.200560809546	3
324	4921	3.208858809546	1
324	4940	3.250560809546	3
324	4954	3.258858809546	1
324	4973	3.300260809546	3
324	4987	3.308558809546	1
324	5006	3.350420809546	3
324	5020	3.358718809546	1
324	5039	3.400260809546	3
324	5053	3.408558809546	1
324	5072	3.450500809546	3
324	5086	3.458798809546	1
324	5115	3.500320809546	3
324	5173	3.508618809546	1
324	5185	3.508718809546	0
324	5198	3.517016809546	1
324	5223	3.51713803599	3
324	5241	3.52543603599	1
324	5261	3.525716930772	2
324	5282	3.534014930772	1
324	5329	3.550580809546	3
324	5344	3.558878809546	1
324	5363	3.600080809546	3
324	5377	3.608378809546	1
324	5389	3.608978809546	0
324	5402	3.617276809546	1
324	5427	3.61743803599	3
324	5445	3.62573603599	1
324	5465	3.625756930772	2
324	5486	3.634054930772	1
324	5533	3.650440809546	3
324	5548	3.658738809546	1
324	5567	3.700380809546	3
324	5581	3.708678809546	1
324	5593	3.708958809546	0
324	5606	3.717256809546	1
324	5631	3.71743803599	3
324	5649	3.72573603599	1
324	5669	3.726096930772	2
324	5690	3.734394930772	1
324	5737	3.750340809546	3
324	5752	3.758638809546	1
324	5771	3.800400809546	3
324	5785	3.808698809546	1
324	5797	3.809098809546	0
324	5810	3.817396809546	1
324	5835	3.81795803599	3
324	5853	3.82625603599	1
324	5873	3.826376930772	2
324	5894	3.834674930772	1
324	5941	3.850020809546	3
324	5956	3.858318809546	1
324	5968	3.858838809546	0
324	5981	3.867136809546	1
324	6006	3.86763803599	3
324	6024	3.87593603599	1
324	6044	3.876496930772	2
324	6065	3.884794930772	1
324	6112	3.900000809546	3
324	6127	3.908298809546	1
324	6146	3.950060809546	3
324	6160	3.958358809546	1
324	6172	3.958398809546	0
324	6185	3.966696809546	1
324	6210	3.96709803599	3
324	6228	3.97539603599	1
324	6248	3.975576930772	2
324	6269	3.983874930772	1
324	6328	4.000120809546	3
324	6343	4.008418809546	1
324	6362	4.050600809546	3
324	6376	4.058898809546	1
324	6388	4.058938809546	0
324	6401	4.067236809546	1
324	6426	4.06761803599	3
324	6444	4.07591603599	1
324	6464	4.075936930772	2
324	6485	4.084234930772	1
324	6532	4.100420809546	3
[...]
342	4504	2.967557619048	1
342	4519	2.967718084364	3
342	4538	2.976016084364	1
342	4550	2.976616382139	3
342	4564	2.984914382139	1
342	4587	2.985135299523	3
342	4607	2.993433299523	1
342	4702	3.059099619048	3
342	4720	3.067397619048	1
342	4735	3.067758084364	3
342	4754	3.076056084364	1
342	4766	3.076096382139	3
342	4780	3.084394382139	1
342	4803	3.084875299523	3
342	4823	3.093173299523	1
342	5191	3.508719619048	3
342	5209	3.517017619048	1
342	5224	3.517138084364	3
342	5243	3.525436084364	1
342	5255	3.525716382139	3
342	5269	3.534014382139	1
342	5292	3.534075299523	3
342	5312	3.542373299523	1
342	5395	3.608979619048	3
342	5413	3.617277619048	1
342	5428	3.617438084364	3
342	5447	3.625736084364	1
342	5459	3.625756382139	3
342	5473	3.634054382139	1
342	5496	3.634375299523	3
342	5516	3.642673299523	1
342	5599	3.708959619048	3
342	5617	3.717257619048	1
342	5632	3.717438084364	3
342	5651	3.725736084364	1
342	5663	3.726096382139	3
342	5677	3.734394382139	1
342	5700	3.734715299523	3
342	5720	3.743013299523	1
342	5803	3.809099619048	3
342	5821	3.817397619048	1
342	5836	3.817958084364	3
342	5855	3.826256084364	1
342	5867	3.826376382139	3
342	5881	3.834674382139	1
342	5904	3.834755299523	3
342	5924	3.843053299523	1
342	5974	3.858839619048	3
342	5992	3.867137619048	1
342	6007	3.867638084364	3
342	6026	3.875936084364	1
342	6038	3.876496382139	3
342	6052	3.884794382139	1
342	6075	3.885275299523	3
342	6095	3.893573299523	1
342	6178	3.958399619048	3
342	6196	3.966697619048	1
342	6211	3.967098084364	3
342	6230	3.975396084364	1
342	6242	3.975576382139	3
342	6256	3.983874382139	1
342	6279	3.983975299523	3
342	6299	3.992273299523	1
342	6394	4.058939619048	3
342	6412	4.067237619048	1
342	6427	4.067618084364	3
342	6446	4.075916084364	1
342	6458	4.075936382139	3
342	6472	4.084234382139	1
342	6495	4.084595299523	3
342	6515	4.092893299523	1
342	6598	4.159439619048	3
342	6616	4.167737619048	1
342	6631	4.168078084364	3
342	6650	4.176376084364	1
342	6662	4.176976382139	3
342	6676	4.185274382139	1
342	6699	4.185655299523	3
342	6719	4.193953299523	1
342	6769	4.209239619048	3
342	6787	4.217537619048	1
342	6802	4.217938084364	3
342	6821	4.226236084364	1
342	6833	4.226436382139	3
342	6847	4.234734382139	1
342	6870	4.235135299523	3
342	6890	4.243433299523	1
342	6973	4.308919619048	3
342	6991	4.317217619048	1
342	7006	4.317358084364	3
342	7025	4.325656084364	1
342	7037	4.326236382139	3
342	7051	4.334534382139	1
342	7074	4.334895299523	3
342	7094	4.343193299523	1
342	7144	4.358479619048	3
342	7162	4.366777619048	1
342	7177	4.366878084364	3
342	7196	4.375176084364	1
342	7208	4.375396382139	3
342	7222	4.383694382139	1
342	7245	4.384275299523	3
342	7265	4.392573299523	1
342	7348	4.458939619048	3
342	7366	4.467237619048	1
342	7381	4.467818084364	3
342	7400	4.476116084364	1
342	7412	4.476276382139	3
342	7426	4.484574382139	1
342	7449	4.485175299523	3
342	7469	4.493473299523	1
342	7552	4.558899619048	3
342	7570	4.567197619048	1
342	7585	4.567658084364	3
342	7604	4.575956084364	1
342	7616	4.576276382139	3
342	7630	4.584574382139	1
342	7653	4.584795299523	3
342	7673	4.593093299523	1
342	7723	4.608519619048	3
342	7741	4.616817619048	1
342	7756	4.617418084364	3
342	7775	4.625716084364	1
342	7787	4.625836382139	3
342	7801	4.634134382139	1
342	7824	4.634195299523	3
342	7844	4.642493299523	1
342	7927	4.708559619048	3
342	7945	4.716857619048	1
342	7960	4.717378084364	3
342	7979	4.725676084364	1
342	7991	4.725876382139	3
342	8005	4.734174382139	1
342	8028	4.734255299523	3
342	8048	4.742553299523	1
342	8098	4.758599619048	3
342	8116	4.766897619048	1
342	8131	4.767158084364	3
342	8150	4.775456084364	1
342	8162	4.775836382139	3
342	8176	4.784134382139	1
342	8199	4.784175299523	3
342	8219	4.792473299523	1
343	402	0.378096990396	1
343	403	0.378096990396	2
343	417	0.378586990396	1
343	417	0.378586990396	0
343	981	0.86267950071	1
343	982	0.86267950071	2
343	994	0.86316950071	1
343	994	0.86316950071	0
343	1525	1.503909947406	1
343	1526	1.503909947406	2
343	1540	1.504399947406	1
343	1540	1.504399947406	0
347	0	0	0
347	0	0	2
347	522	0.379648286112	3
347	537	0.380138286112	2
347	1114	0.866232452642	3
347	1128	0.866722452642	2
347	1436	1.50258911718	3
347	1449	1.50307911718	2
347	1778	1.516390601172	3
347	1791	1.516848601172	2
347	2056	1.5500748008	3
347	2085	1.5583728008	2
347	2405	1.618820419892	3
347	2447	1.627118419892	2
347	2720	1.678169911661	3
347	2759	1.686467911661	2
347	3086	1.826335946047	3
347	3100	1.834633946047	2
347	3368	2.026295946047	3
347	3382	2.034593946047	2
347	3572	2.126595946047	3
347	3586	2.134893946047	2
347	3842	2.325895946047	3
347	3856	2.334193946047	2
347	4013	2.375975946047	3
347	4027	2.384273946047	2
347	4547	2.976615946047	3
347	4561	2.984913946047	2
347	4763	3.076095946047	3
347	4777	3.084393946047	2
347	5252	3.525715946047	3
347	5266	3.534013946047	2
347	5456	3.625755946047	3
347	5470	3.634053946047	2
347	5660	3.726095946047	3
347	5674	3.734393946047	2
347	5864	3.826375946047	3
347	5878	3.834673946047	2
347	6035	3.876495946047	3
347	6049	3.884793946047	2
347	6239	3.975575946047	3
347	6253	3.983873946047	2
347	6455	4.075935946047	3
347	6469	4.084233946047	2
347	6659	4.176975946047	3
347	6673	4.185273946047	2
347	6830	4.226435946047	3
347	6844	4.234733946047	2
347	7034	4.326235946047	3
347	7048	4.334533946047	2
347	7205	4.375395946047	3
347	7219	4.383693946047	2
347	7409	4.476275946047	3
347	7423	4.484573946047	2
347	7613	4.576275946047	3
347	7627	4.584573946047	2
347	7784	4.625835946047	3
347	7798	4.634133946047	2
347	7988	4.725875946047	3
347	8002	4.734173946047	2
347	8159	4.775835946047	3
347	8173	4.784133946047	2
348	0	0	1
348	92	0.054380944972	2
348	122	0.054870944972	1
348	136	0.05566914987	2
348	163	0.05615914987	1
348	321	0.375792225558	2
348	350	0.376282225558	1
348	360	0.376562467738	3
348	378	0.377052467738	1
348	406	0.378097426488	3
348	426	0.378587426488	1
348	460	0.378648784623	2
348	471	0.378758286112	3
348	509	0.379248286112	1
348	522	0.379648286112	0
348	537	0.380138286112	1
348	571	0.38039933267	3
348	589	0.38088933267	1
348	695	0.855869901624	2
348	722	0.856359901624	1
348	740	0.858127315336	2
348	774	0.858617315336	1
348	823	0.859788049114	3
348	841	0.860278049114	1
348	871	0.860705414859	3
348	889	0.861195414859	1
348	916	0.861296421895	3
348	947	0.861786421895	1
348	985	0.862679936802	3
348	1003	0.863169936802	1
348	1034	0.864691862198	3
348	1059	0.865181862198	1
348	1078	0.865342452642	3
348	1100	0.865832452642	1
348	1114	0.866232452642	0
348	1128	0.866722452642	1
348	1265	1.498426502327	2
348	1297	1.498916502327	1
348	1309	1.499037144279	2
348	1336	1.499527144279	1
348	1391	1.501870991711	3
348	1411	1.502360991711	1
348	1436	1.50258911718	0
348	1449	1.50307911718	1
348	1483	1.50320005624	3
348	1501	1.50369005624	1
348	1529	1.503910383498	3
348	1549	1.504400383498	1
348	1578	1.504561300882	3
348	1601	1.505051300882	1
348	1653	1.506430650534	3
348	1674	1.506920650534	1
348	1694	1.507742602621	3
348	1712	1.508232602621	1
348	1743	1.510854993612	3
348	1758	1.511312993612	1
348	1778	1.516390601172	0
348	1791	1.516848601172	1
348	1820	1.521810265334	3
348	1834	1.522268265334	1
348	1859	1.523161029932	2
348	1909	1.523619029932	1
348	1954	1.532918649024	2
348	1975	1.541216649024	1
348	1984	1.5412768008	3
348	2012	1.5495748008	1
348	2056	1.5500748008	0
348	2085	1.5583728008	1
348	2123	1.558714028786	3
348	2158	1.567012028786	1
348	2269	1.593206268116	2
348	2294	1.601504268116	1
348	2307	1.601724268116	2
348	2328	1.610022268116	1
348	2339	1.610202419892	3
348	2368	1.618500419892	1
348	2405	1.618820419892	0
348	2447	1.627118419892	1
348	2471	1.62717946645	3
348	2514	1.63547746645	2
348	2550	1.643576855938	1
348	2647	1.661493759885	2
348	2671	1.669791759885	1
348	2673	1.669791911661	3
348	2705	1.678089911661	1
348	2720	1.678169911661	0
348	2759	1.686467911661	1
348	2784	1.686729139647	3
348	2832	1.695027139647	1
348	3027	1.809019794271	2
348	3047	1.817317794271	1
348	3056	1.817517946047	3
348	3071	1.825815946047	1
348	3086	1.826335946047	0
348	3100	1.834633946047	1
348	3125	1.835135174033	3
348	3144	1.843433174033	1
348	3309	2.009119794271	2
348	3329	2.017417794271	1
348	3338	2.017497946047	3
348	3353	2.025795946047	1
348	3368	2.026295946047	0
348	3382	2.034593946047	1
348	3407	2.034975174033	3
348	3426	2.043273174033	1
348	3513	2.109079794271	2
348	3533	2.117377794271	1
348	3542	2.117977946047	3
348	3557	2.126275946047	1
348	3572	2.126595946047	0
348	3586	2.134893946047	1
348	3611	2.135515174033	3
348	3630	2.143813174033	1
348	3783	2.309159794271	2
348	3803	2.317457794271	1
348	3812	2.317577946047	3
348	3827	2.325875946047	1
348	3842	2.325895946047	0
348	3856	2.334193946047	1
348	3881	2.334615174033	3
348	3900	2.342913174033	1
348	3954	2.359159794271	2
348	3974	2.367457794271	1
348	3983	2.367577946047	3
348	3998	2.375875946047	1
348	4013	2.375975946047	0
348	4027	2.384273946047	1
348	4052	2.384835174033	3
348	4071	2.393133174033	1
348	4488	2.959259794271	2
348	4508	2.967557794271	1
348	4517	2.967717946047	3
348	4532	2.976015946047	1
348	4547	2.976615946047	0
348	4561	2.984913946047	1
348	4586	2.985135174033	3
348	4605	2.993433174033	1
348	4704	3.059099794271	2
348	4724	3.067397794271	1
348	4733	3.067757946047	3
348	4748	3.076055946047	1
348	4763	3.076095946047	0
348	4777	3.084393946047	1
348	4802	3.084875174033	3
348	4821	3.093173174033	1
348	5193	3.508719794271	2
348	5213	3.517017794271	1
348	5222	3.517137946047	3
348	5237	3.525435946047	1
348	5252	3.525715946047	0
348	5266	3.534013946047	1
348	5291	3.534075174033	3
348	5310	3.542373174033	1
348	5397	3.608979794271	2
348	5417	3.617277794271	1
348	5426	3.617437946047	3
348	5441	3.625735946047	1
348	5456	3.625755946047	0
348	5470	3.634053946047	1
348	5495	3.634375174033	3
348	5514	3.642673174033	1
348	5601	3.708959794271	2
348	5621	3.717257794271	1
348	5630	3.717437946047	3
348	5645	3.725735946047	1
348	5660	3.726095946047	0
348	5674	3.734393946047	1
348	5699	3.734715174033	3
348	5718	3.743013174033	1
348	5805	3.809099794271	2
348	5825	3.817397794271	1
348	5834	3.817957946047	3
348	5849	3.826255946047	1
348	5864	3.826375946047	0
348	5878	3.834673946047	1
348	5903	3.834755174033	3
348	5922	3.843053174033	1
348	5976	3.858839794271	2
348	5996	3.867137794271	1
348	6005	3.867637946047	3
348	6020	3.875935946047	1
348	6035	3.876495946047	0
348	6049	3.884793946047	1
348	6074	3.885275174033	3
348	6093	3.893573174033	1
348	6180	3.958399794271	2
348	6200	3.966697794271	1
348	6209	3.967097946047	3
348	6224	3.975395946047	1
348	6239	3.975575946047	0
348	6253	3.983873946047	1
348	6278	3.983975174033	3
348	6297	3.992273174033	1
348	6396	4.058939794271	2
348	6416	4.067237794271	1
348	6425	4.067617946047	3
348	6440	4.075915946047	1
348	6455	4.075935946047	0
348	6469	4.084233946047	1
348	6494	4.084595174033	3
348	6513	4.092893174033	1
348	6600	4.159439794271	2
348	6620	4.167737794271	1
348	6629	4.168077946047	3
348	6644	4.176375946047	1
348	6659	4.176975946047	0
348	6673	4.185273946047	1
348	6698	4.185655174033	3
348	6717	4.193953174033	1
348	6771	4.209239794271	2
348	6791	4.217537794271	1
348	6800	4.217937946047	3
348	6815	4.226235946047	1
348	6830	4.226435946047	0
348	6844	4.234733946047	1
348	6869	4.235135174033	3
348	6888	4.243433174033	1
348	6975	4.308919794271	2
348	6995	4.317217794271	1
348	7004	4.317357946047	3
348	7019	4.325655946047	1
348	7034	4.326235946047	0
348	7048	4.334533946047	1
348	7073	4.334895174033	3
348	7092	4.343193174033	1
348	7146	4.358479794271	2
348	7166	4.366777794271	1
348	7175	4.366877946047	3
348	7190	4.375175946047	1
348	7205	4.375395946047	0
348	7219	4.383693946047	1
348	7244	4.384275174033	3
348	7263	4.392573174033	1
348	7350	4.458939794271	2
348	7370	4.467237794271	1
348	7379	4.467817946047	3
348	7394	4.476115946047	1
348	7409	4.476275946047	0
348	7423	4.484573946047	1
348	7448	4.485175174033	3
348	7467	4.493473174033	1
348	7554	4.558899794271	2
348	7574	4.567197794271	1
348	7583	4.567657946047	3
348	7598	4.575955946047	1
348	7613	4.576275946047	0
348	7627	4.584573946047	1
348	7652	4.584795174033	3
348	7671	4.593093174033	1
348	7725	4.608519794271	2
348	7745	4.616817794271	1
348	7754	4.617417946047	3
348	7769	4.625715946047	1
348	7784	4.625835946047	0
348	7798	4.634133946047	1
348	7823	4.634195174033	3
348	7842	4.642493174033	1
348	7929	4.708559794271	2
348	7949	4.716857794271	1
348	7958	4.717377946047	3
348	7973	4.725675946047	1
348	7988	4.725875946047	0
348	8002	4.734173946047	1
348	8027	4.734255174033	3
348	8046	4.742553174033	1
348	8100	4.758599794271	2
348	8120	4.766897794271	1
348	8129	4.767157946047	3
348	8144	4.775455946047	1
348	8159	4.775835946047	0
348	8173	4.784133946047	1
348	8198	4.784175174033	3
348	8217	4.792473174033	1
349	522	0.379648286112	1
349	523	0.379648286112	2
349	537	0.380138286112	1
349	537	0.380138286112	0
349	1114	0.866232452642	1
349	1115	0.866232452642	2
349	1128	0.866722452642	1
349	1128	0.866722452642	0
349	1436	1.50258911718	1
349	1437	1.50258911718	2
349	1449	1.50307911718	1
349	1449	1.50307911718	0
349	1778	1.516390601172	1
349	1779	1.516390601172	2
349	1791	1.516848601172	1
349	1791	1.516848601172	0
349	2056	1.5500748008	1
349	2057	1.5500748008	2
349	2085	1.5583728008	1
349	2085	1.5583728008	0
349	2405	1.618820419892	1
349	2406	1.618820419892	2
349	2447	1.627118419892	1
349	2447	1.627118419892	0
349	2720	1.678169911661	1
349	2721	1.678169911661	2
349	2759	1.686467911661	1
349	2759	1.686467911661	0
349	3086	1.826335946047	1
349	3087	1.826335946047	2
349	3100	1.834633946047	1
349	3100	1.834633946047	0
349	3368	2.026295946047	1
349	3369	2.026295946047	2
349	3382	2.034593946047	1
349	3382	2.034593946047	0
349	3572	2.126595946047	1
349	3573	2.126595946047	2
349	3586	2.134893946047	1
349	3586	2.134893946047	0
349	3842	2.325895946047	1
349	3843	2.325895946047	2
349	3856	2.334193946047	1
349	3856	2.334193946047	0
349	4013	2.375975946047	1
349	4014	2.375975946047	2
349	4027	2.384273946047	1
349	4027	2.384273946047	0
349	4547	2.976615946047	1
349	4548	2.976615946047	2
349	4561	2.984913946047	1
349	4561	2.984913946047	0
349	4763	3.076095946047	1
349	4764	3.076095946047	2
349	4777	3.084393946047	1
349	4777	3.084393946047	0
349	5252	3.525715946047	1
349	5253	3.525715946047	2
349	5266	3.534013946047	1
349	5266	3.534013946047	0
349	5456	3.625755946047	1
349	5457	3.625755946047	2
349	5470	3.634053946047	1
349	5470	3.634053946047	0
349	5660	3.726095946047	1
349	5661	3.726095946047	2
349	5674	3.734393946047	1
349	5674	3.734393946047	0
349	5864	3.826375946047	1
349	5865	3.826375946047	2
349	5878	3.834673946047	1
349	5878	3.834673946047	0
349	6035	3.876495946047	1
349	6036	3.876495946047	2
349	6049	3.884793946047	1
349	6049	3.884793946047	0
349	6239	3.975575946047	1
349	6240	3.975575946047	2
349	6253	3.983873946047	1
349	6253	3.983873946047	0
349	6455	4.075935946047	1
349	6456	4.075935946047	2
349	6469	4.084233946047	1
349	6469	4.084233946047	0
349	6659	4.176975946047	1
349	6660	4.176975946047	2
349	6673	4.185273946047	1
349	6673	4.185273946047	0
349	6830	4.226435946047	1
349	6831	4.226435946047	2
349	6844	4.234733946047	1
349	6844	4.234733946047	0
349	7034	4.326235946047	1
349	7035	4.326235946047	2
349	7048	4.334533946047	1
349	7048	4.334533946047	0
349	7205	4.375395946047	1
349	7206	4.375395946047	2
349	7219	4.383693946047	1
349	7219	4.383693946047	0
349	7409	4.476275946047	1
349	7410	4.476275946047	2
349	7423	4.484573946047	1
349	7423	4.484573946047	0
349	7613	4.576275946047	1
349	7614	4.576275946047	2
349	7627	4.584573946047	1
349	7627	4.584573946047	0
349	7784	4.625835946047	1
349	7785	4.625835946047	2
349	7798	4.634133946047	1
349	7798	4.634133946047	0
349	7988	4.725875946047	1
349	7989	4.725875946047	2
349	8002	4.734173946047	1
349	8002	4.734173946047	0
349	8159	4.775835946047	1
349	8160	4.775835946047	2
349	8173	4.784133946047	1
349	8173	4.784133946047	0
353	0	0	0
353	0	0	2
353	1073	0.865341741008	3
353	1087	0.865831741008	2
353	1648	1.5064299389	3
353	1661	1.5069199389	2
354	0	0	1
354	365	0.3765628625	2
354	396	0.3770528625	1
354	407	0.378097497777	3
354	430	0.378587497777	1
354	470	0.378758267485	3
354	505	0.379248267485	1
354	529	0.379648997746	3
354	558	0.380138997746	1
354	828	0.859788443876	2
354	861	0.860278443876	1
354	870	0.860705396232	3
354	885	0.861195396232	1
354	928	0.861476582836	3
354	967	0.861934582836	1
354	986	0.862680008091	3
354	1007	0.863170008091	1
354	1032	0.864691741008	3
354	1051	0.865181741008	1
354	1073	0.865341741008	0
354	1087	0.865831741008	1
354	1121	0.866233164276	3
354	1149	0.866723164276	1
354	1443	1.502589828814	3
354	1470	1.503079828814	1
354	1488	1.503200451002	2
354	1521	1.503690451002	1
354	1530	1.503910454787	3
354	1553	1.504400454787	1
354	1576	1.504561179692	3
354	1591	1.505051179692	1
354	1619	1.5055519389	3
354	1636	1.5060099389	1
354	1648	1.5064299389	0
354	1661	1.5069199389	1
354	1693	1.507742583994	3
354	1708	1.508232583994	1
354	1741	1.510854872422	3
354	1754	1.511312872422	1
354	1785	1.516391312806	3
354	1804	1.516849312806	1
354	2003	1.541618521403	2
354	2024	1.549575406818	1
354	2063	1.550075512434	3
354	2098	1.558373512434	1
354	2121	1.558713907596	3
354	2151	1.567011907596	1
354	2356	1.610204140495	2
354	2386	1.61850102591	1
354	2412	1.618821131526	3
354	2460	1.627119131526	1
354	2477	1.627180072468	2
354	2494	1.635178140495	1
354	2500	1.635278734748	3
354	2543	1.643576734748	1
354	2696	1.670353632264	2
354	2717	1.678090517679	1
354	2727	1.678170623295	3
354	2772	1.686468623295	1
354	2782	1.686729018457	3
354	2825	1.695027018457	1
354	3093	1.826336657681	3
354	3113	1.834634657681	1
354	3123	1.835135052843	3
354	3137	1.843433052843	1
354	3375	2.026296657681	3
354	3395	2.034594657681	1
354	3405	2.034975052843	3
354	3419	2.043273052843	1
354	3579	2.126596657681	3
354	3599	2.134894657681	1
354	3609	2.135515052843	3
354	3623	2.143813052843	1
354	3849	2.325896657681	3
354	3869	2.334194657681	1
354	3879	2.334615052843	3
354	3893	2.342913052843	1
354	4020	2.375976657681	3
354	4040	2.384274657681	1
354	4050	2.384835052843	3
354	4064	2.393133052843	1
354	4554	2.976616657681	3
354	4574	2.984914657681	1
354	4584	2.985135052843	3
354	4598	2.993433052843	1
354	4770	3.076096657681	3
354	4790	3.084394657681	1
354	4800	3.084875052843	3
354	4814	3.093173052843	1
354	5259	3.525716657681	3
354	5279	3.534014657681	1
354	5289	3.534075052843	3
354	5303	3.542373052843	1
354	5463	3.625756657681	3
354	5483	3.634054657681	1
354	5493	3.634375052843	3
354	5507	3.642673052843	1
354	5667	3.726096657681	3
354	5687	3.734394657681	1
354	5697	3.734715052843	3
354	5711	3.743013052843	1
354	5871	3.826376657681	3
354	5891	3.834674657681	1
354	5901	3.834755052843	3
354	5915	3.843053052843	1
354	6042	3.876496657681	3
354	6062	3.884794657681	1
354	6072	3.885275052843	3
354	6086	3.893573052843	1
354	6246	3.975576657681	3
354	6266	3.983874657681	1
354	6276	3.983975052843	3
354	6290	3.992273052843	1
354	6462	4.075936657681	3
354	6482	4.084234657681	1
354	6492	4.084595052843	3
354	6506	4.092893052843	1
354	6666	4.176976657681	3
354	6686	4.185274657681	1
354	6696	4.185655052843	3
354	6710	4.193953052843	1
354	6837	4.226436657681	3
354	6857	4.234734657681	1
354	6867	4.235135052843	3
354	6881	4.243433052843	1
354	7041	4.326236657681	3
354	7061	4.334534657681	1
354	7071	4.334895052843	3
354	7085	4.343193052843	1
354	7212	4.375396657681	3
354	7232	4.383694657681	1
354	7242	4.384275052843	3
354	7256	4.392573052843	1
354	7416	4.476276657681	3
354	7436	4.484574657681	1
354	7446	4.485175052843	3
354	7460	4.493473052843	1
354	7620	4.576276657681	3
354	7640	4.584574657681	1
354	7650	4.584795052843	3
354	7664	4.593093052843	1
354	7791	4.625836657681	3
354	7811	4.634134657681	1
354	7821	4.634195052843	3
354	7835	4.642493052843	1
354	7995	4.725876657681	3
354	8015	4.734174657681	1
354	8025	4.734255052843	3
354	8039	4.742553052843	1
354	8166	4.775836657681	3
354	8186	4.784134657681	1
354	8196	4.784175052843	3
354	8210	4.792473052843	1
355	1073	0.865341741008	1
355	1074	0.865341741008	2
355	1087	0.865831741008	1
355	1087	0.865831741008	0
355	1648	1.5064299389	1
355	1649	1.5064299389	2
355	1661	1.5069199389	1
355	1661	1.5069199389	0
