version 2
run Host30_40pps-0-20161107-20:45:33-7748
attr configname Host30_40pps
attr datetime 20161107-20:45:33
attr experiment Host30_40pps
attr inifile omnetpp_30.ini
attr iterationvars ""
attr iterationvars2 $repetition=0
attr measurement ""
attr network arb_png.car_host_30
attr processid 7748
attr repetition 0
attr replication #0
attr resultdir results
attr runnumber 0
attr seedset 0
param **.aodv.activeRouteTimeout 2s
param *.configurator.addStaticRoutes false
param *.configurator.config "xml(\"<config><interface hosts='**' address='10.0.0.x' netmask='255.255.255.0'/><autoroute metric='errorRate'/></config>\")"
param *.configurator.optimizeRoutes true
param *.host*.**.bitrate 1Mbps
param *.host*.networkLayer.arpType "\"GlobalARP\""
param *.host*.routingTable.netmaskRoutes "\"\""
param *.host*.wlan[0].mac.maxQueueSize 15
param *.host*.wlan[0].mac.useAck false
param *.host*.wlan[0].macType "\"CsmaCaMac\""
param *.host*.wlan[0].radio.bandwidth 2MHz
param *.host*.wlan[0].radio.carrierFrequency 2GHz
param *.host*.wlan[0].radio.displayCommunicationRange true
param *.host*.wlan[0].radio.displayInterferenceRange true
param *.host*.wlan[0].radio.receiver.energyDetection -85dBm
param *.host*.wlan[0].radio.receiver.ignoreInterference false
param *.host*.wlan[0].radio.receiver.sensitivity -85dBm
param *.host*.wlan[0].radio.receiver.snirThreshold 4dB
param *.host*.wlan[0].radio.transmitter.communicationRange 200m
param *.host*.wlan[0].radio.transmitter.headerBitLength 0b
param *.host*.wlan[0].radio.transmitter.power 1.4mW
param *.host*.wlan[0].radio.transmitter.preambleDuration 10us
param *.host*.wlan[0].radioType "\"APSKScalarRadio\""
param *.host*.wlan[0].typename "\"WirelessNic\""
param *.hostA.numUdpApps 1
param *.hostA.udpApp[0].destAddresses "\"hostD\""
param *.hostA.udpApp[0].destPort 5000
param *.hostA.udpApp[0].messageLength 1000B
param *.hostA.udpApp[0].packetName "\"Data\""
param *.hostA.udpApp[0].sendInterval 25ms
param *.hostA.udpApp[0].typename "\"UDPBasicApp\""
param *.hostD.numUdpApps 1
param *.hostD.udpApp[0].localPort 5000
param *.hostD.udpApp[0].typename "\"UDPSink\""
param *.hostType "\"AODVRouter\""
param *.mediumType "\"APSKScalarRadioMedium\""
param *.radioMedium.backgroundNoise.power -90dBm
param *.radioMedium.mediumLimitCache.carrierFrequency 2GHz
param *.visualizer.dataLinkVisualizer.packetNameFilter "\"AODV*\""
param *.visualizer.mediumVisualizer.signalPropagationUpdateInterval 100ns
param *.visualizer.mobilityVisualizer.displayMovementTrail true
param *.visualizer.networkRouteVisualizer.packetNameFilter "\"UDPData*\""
param *.visualizer.sceneVisualizer.descriptionFigure "\"title\""

vector 12  car_host_30.hostA.wlan[0].radio  radioMode:vector  ETV
attr interpolationmode  sample-hold
attr source  radioModeChanged
attr title  "Radio mode, vector"
vector 26  car_host_30.hostD.wlan[0].radio  radioMode:vector  ETV
attr interpolationmode  sample-hold
attr source  radioModeChanged
attr title  "Radio mode, vector"
vector 32  car_host_30.hostB.wlan[0].radio  radioMode:vector  ETV
attr interpolationmode  sample-hold
attr source  radioModeChanged
attr title  "Radio mode, vector"
vector 38  car_host_30.hostC.wlan[0].radio  radioMode:vector  ETV
attr interpolationmode  sample-hold
attr source  radioModeChanged
attr title  "Radio mode, vector"
vector 44  car_host_30.hostB1.wlan[0].radio  radioMode:vector  ETV
attr interpolationmode  sample-hold
attr source  radioModeChanged
attr title  "Radio mode, vector"
vector 50  car_host_30.hostB2.wlan[0].radio  radioMode:vector  ETV
attr interpolationmode  sample-hold
attr source  radioModeChanged
attr title  "Radio mode, vector"
vector 56  car_host_30.hostB3.wlan[0].radio  radioMode:vector  ETV
attr interpolationmode  sample-hold
attr source  radioModeChanged
attr title  "Radio mode, vector"
vector 62  car_host_30.hostB4.wlan[0].radio  radioMode:vector  ETV
attr interpolationmode  sample-hold
attr source  radioModeChanged
attr title  "Radio mode, vector"
vector 68  car_host_30.hostC1.wlan[0].radio  radioMode:vector  ETV
attr interpolationmode  sample-hold
attr source  radioModeChanged
attr title  "Radio mode, vector"
vector 74  car_host_30.hostC2.wlan[0].radio  radioMode:vector  ETV
attr interpolationmode  sample-hold
attr source  radioModeChanged
attr title  "Radio mode, vector"
vector 80  car_host_30.hostC3.wlan[0].radio  radioMode:vector  ETV
attr interpolationmode  sample-hold
attr source  radioModeChanged
attr title  "Radio mode, vector"
vector 86  car_host_30.hostC4.wlan[0].radio  radioMode:vector  ETV
attr interpolationmode  sample-hold
attr source  radioModeChanged
attr title  "Radio mode, vector"
vector 92  car_host_30.hostC5.wlan[0].radio  radioMode:vector  ETV
attr interpolationmode  sample-hold
attr source  radioModeChanged
attr title  "Radio mode, vector"
vector 98  car_host_30.hostC6.wlan[0].radio  radioMode:vector  ETV
attr interpolationmode  sample-hold
attr source  radioModeChanged
attr title  "Radio mode, vector"
vector 104  car_host_30.hostB5.wlan[0].radio  radioMode:vector  ETV
attr interpolationmode  sample-hold
attr source  radioModeChanged
attr title  "Radio mode, vector"
vector 110  car_host_30.hostC7.wlan[0].radio  radioMode:vector  ETV
attr interpolationmode  sample-hold
attr source  radioModeChanged
attr title  "Radio mode, vector"
vector 116  car_host_30.hostB6.wlan[0].radio  radioMode:vector  ETV
attr interpolationmode  sample-hold
attr source  radioModeChanged
attr title  "Radio mode, vector"
vector 122  car_host_30.hostB7.wlan[0].radio  radioMode:vector  ETV
attr interpolationmode  sample-hold
attr source  radioModeChanged
attr title  "Radio mode, vector"
vector 128  car_host_30.hostC8.wlan[0].radio  radioMode:vector  ETV
attr interpolationmode  sample-hold
attr source  radioModeChanged
attr title  "Radio mode, vector"
vector 134  car_host_30.hostC9.wlan[0].radio  radioMode:vector  ETV
attr interpolationmode  sample-hold
attr source  radioModeChanged
attr title  "Radio mode, vector"
vector 140  car_host_30.hostB8.wlan[0].radio  radioMode:vector  ETV
attr interpolationmode  sample-hold
attr source  radioModeChanged
attr title  "Radio mode, vector"
vector 146  car_host_30.hostB9.wlan[0].radio  radioMode:vector  ETV
attr interpolationmode  sample-hold
attr source  radioModeChanged
attr title  "Radio mode, vector"
vector 152  car_host_30.hostC10.wlan[0].radio  radioMode:vector  ETV
attr interpolationmode  sample-hold
attr source  radioModeChanged
attr title  "Radio mode, vector"
vector 158  car_host_30.hostC11.wlan[0].radio  radioMode:vector  ETV
attr interpolationmode  sample-hold
attr source  radioModeChanged
attr title  "Radio mode, vector"
vector 164  car_host_30.hostB10.wlan[0].radio  radioMode:vector  ETV
attr interpolationmode  sample-hold
attr source  radioModeChanged
attr title  "Radio mode, vector"
vector 170  car_host_30.hostC12.wlan[0].radio  radioMode:vector  ETV
attr interpolationmode  sample-hold
attr source  radioModeChanged
attr title  "Radio mode, vector"
vector 176  car_host_30.hostB11.wlan[0].radio  radioMode:vector  ETV
attr interpolationmode  sample-hold
attr source  radioModeChanged
attr title  "Radio mode, vector"
vector 182  car_host_30.hostB12.wlan[0].radio  radioMode:vector  ETV
attr interpolationmode  sample-hold
attr source  radioModeChanged
attr title  "Radio mode, vector"
vector 188  car_host_30.hostC13.wlan[0].radio  radioMode:vector  ETV
attr interpolationmode  sample-hold
attr source  radioModeChanged
attr title  "Radio mode, vector"
vector 194  car_host_30.hostC14.wlan[0].radio  radioMode:vector  ETV
attr interpolationmode  sample-hold
attr source  radioModeChanged
attr title  "Radio mode, vector"
vector 200  car_host_30.hostB13.wlan[0].radio  radioMode:vector  ETV
attr interpolationmode  sample-hold
attr source  radioModeChanged
attr title  "Radio mode, vector"
vector 206  car_host_30.hostB14.wlan[0].radio  radioMode:vector  ETV
attr interpolationmode  sample-hold
attr source  radioModeChanged
attr title  "Radio mode, vector"
vector 13  car_host_30.hostA.wlan[0].radio  receptionState:vector  ETV
attr interpolationmode  sample-hold
attr source  receptionStateChanged
attr title  "Radio reception state, vector"
vector 27  car_host_30.hostD.wlan[0].radio  receptionState:vector  ETV
attr interpolationmode  sample-hold
attr source  receptionStateChanged
attr title  "Radio reception state, vector"
vector 33  car_host_30.hostB.wlan[0].radio  receptionState:vector  ETV
attr interpolationmode  sample-hold
attr source  receptionStateChanged
attr title  "Radio reception state, vector"
vector 39  car_host_30.hostC.wlan[0].radio  receptionState:vector  ETV
attr interpolationmode  sample-hold
attr source  receptionStateChanged
attr title  "Radio reception state, vector"
vector 45  car_host_30.hostB1.wlan[0].radio  receptionState:vector  ETV
attr interpolationmode  sample-hold
attr source  receptionStateChanged
attr title  "Radio reception state, vector"
vector 51  car_host_30.hostB2.wlan[0].radio  receptionState:vector  ETV
attr interpolationmode  sample-hold
attr source  receptionStateChanged
attr title  "Radio reception state, vector"
vector 57  car_host_30.hostB3.wlan[0].radio  receptionState:vector  ETV
attr interpolationmode  sample-hold
attr source  receptionStateChanged
attr title  "Radio reception state, vector"
vector 63  car_host_30.hostB4.wlan[0].radio  receptionState:vector  ETV
attr interpolationmode  sample-hold
attr source  receptionStateChanged
attr title  "Radio reception state, vector"
vector 69  car_host_30.hostC1.wlan[0].radio  receptionState:vector  ETV
attr interpolationmode  sample-hold
attr source  receptionStateChanged
attr title  "Radio reception state, vector"
vector 75  car_host_30.hostC2.wlan[0].radio  receptionState:vector  ETV
attr interpolationmode  sample-hold
attr source  receptionStateChanged
attr title  "Radio reception state, vector"
vector 81  car_host_30.hostC3.wlan[0].radio  receptionState:vector  ETV
attr interpolationmode  sample-hold
attr source  receptionStateChanged
attr title  "Radio reception state, vector"
vector 87  car_host_30.hostC4.wlan[0].radio  receptionState:vector  ETV
attr interpolationmode  sample-hold
attr source  receptionStateChanged
attr title  "Radio reception state, vector"
vector 93  car_host_30.hostC5.wlan[0].radio  receptionState:vector  ETV
attr interpolationmode  sample-hold
attr source  receptionStateChanged
attr title  "Radio reception state, vector"
vector 99  car_host_30.hostC6.wlan[0].radio  receptionState:vector  ETV
attr interpolationmode  sample-hold
attr source  receptionStateChanged
attr title  "Radio reception state, vector"
vector 105  car_host_30.hostB5.wlan[0].radio  receptionState:vector  ETV
attr interpolationmode  sample-hold
attr source  receptionStateChanged
attr title  "Radio reception state, vector"
vector 111  car_host_30.hostC7.wlan[0].radio  receptionState:vector  ETV
attr interpolationmode  sample-hold
attr source  receptionStateChanged
attr title  "Radio reception state, vector"
vector 117  car_host_30.hostB6.wlan[0].radio  receptionState:vector  ETV
attr interpolationmode  sample-hold
attr source  receptionStateChanged
attr title  "Radio reception state, vector"
vector 123  car_host_30.hostB7.wlan[0].radio  receptionState:vector  ETV
attr interpolationmode  sample-hold
attr source  receptionStateChanged
attr title  "Radio reception state, vector"
vector 129  car_host_30.hostC8.wlan[0].radio  receptionState:vector  ETV
attr interpolationmode  sample-hold
attr source  receptionStateChanged
attr title  "Radio reception state, vector"
vector 135  car_host_30.hostC9.wlan[0].radio  receptionState:vector  ETV
attr interpolationmode  sample-hold
attr source  receptionStateChanged
attr title  "Radio reception state, vector"
vector 141  car_host_30.hostB8.wlan[0].radio  receptionState:vector  ETV
attr interpolationmode  sample-hold
attr source  receptionStateChanged
attr title  "Radio reception state, vector"
vector 147  car_host_30.hostB9.wlan[0].radio  receptionState:vector  ETV
attr interpolationmode  sample-hold
attr source  receptionStateChanged
attr title  "Radio reception state, vector"
vector 153  car_host_30.hostC10.wlan[0].radio  receptionState:vector  ETV
attr interpolationmode  sample-hold
attr source  receptionStateChanged
attr title  "Radio reception state, vector"
vector 159  car_host_30.hostC11.wlan[0].radio  receptionState:vector  ETV
attr interpolationmode  sample-hold
attr source  receptionStateChanged
attr title  "Radio reception state, vector"
vector 165  car_host_30.hostB10.wlan[0].radio  receptionState:vector  ETV
attr interpolationmode  sample-hold
attr source  receptionStateChanged
attr title  "Radio reception state, vector"
vector 171  car_host_30.hostC12.wlan[0].radio  receptionState:vector  ETV
attr interpolationmode  sample-hold
attr source  receptionStateChanged
attr title  "Radio reception state, vector"
vector 177  car_host_30.hostB11.wlan[0].radio  receptionState:vector  ETV
attr interpolationmode  sample-hold
attr source  receptionStateChanged
attr title  "Radio reception state, vector"
vector 183  car_host_30.hostB12.wlan[0].radio  receptionState:vector  ETV
attr interpolationmode  sample-hold
attr source  receptionStateChanged
attr title  "Radio reception state, vector"
vector 189  car_host_30.hostC13.wlan[0].radio  receptionState:vector  ETV
attr interpolationmode  sample-hold
attr source  receptionStateChanged
attr title  "Radio reception state, vector"
vector 195  car_host_30.hostC14.wlan[0].radio  receptionState:vector  ETV
attr interpolationmode  sample-hold
attr source  receptionStateChanged
attr title  "Radio reception state, vector"
vector 201  car_host_30.hostB13.wlan[0].radio  receptionState:vector  ETV
attr interpolationmode  sample-hold
attr source  receptionStateChanged
attr title  "Radio reception state, vector"
vector 207  car_host_30.hostB14.wlan[0].radio  receptionState:vector  ETV
attr interpolationmode  sample-hold
attr source  receptionStateChanged
attr title  "Radio reception state, vector"
vector 1  car_host_30.hostA.udpApp[0]  sentPk:vector(packetBytes)  ETV
attr interpolationmode  none
attr source  sentPk
attr title  "packets sent, vector(packetBytes)"
vector 4  car_host_30.hostA.udp  sentPk:vector(packetBytes)  ETV
attr interpolationmode  none
attr source  sentPk
attr title  "packets sent, vector(packetBytes)"
vector 14  car_host_30.hostA.wlan[0].radio  transmissionState:vector  ETV
attr interpolationmode  sample-hold
attr source  transmissionStateChanged
attr title  "Radio transmission state, vector"
vector 64  car_host_30.hostB4.wlan[0].radio  transmissionState:vector  ETV
attr interpolationmode  sample-hold
attr source  transmissionStateChanged
attr title  "Radio transmission state, vector"
vector 202  car_host_30.hostB13.wlan[0].radio  transmissionState:vector  ETV
attr interpolationmode  sample-hold
attr source  transmissionStateChanged
attr title  "Radio transmission state, vector"
vector 148  car_host_30.hostB9.wlan[0].radio  transmissionState:vector  ETV
attr interpolationmode  sample-hold
attr source  transmissionStateChanged
attr title  "Radio transmission state, vector"
vector 124  car_host_30.hostB7.wlan[0].radio  transmissionState:vector  ETV
attr interpolationmode  sample-hold
attr source  transmissionStateChanged
attr title  "Radio transmission state, vector"
vector 46  car_host_30.hostB1.wlan[0].radio  transmissionState:vector  ETV
attr interpolationmode  sample-hold
attr source  transmissionStateChanged
attr title  "Radio transmission state, vector"
vector 184  car_host_30.hostB12.wlan[0].radio  transmissionState:vector  ETV
attr interpolationmode  sample-hold
attr source  transmissionStateChanged
attr title  "Radio transmission state, vector"
vector 178  car_host_30.hostB11.wlan[0].radio  transmissionState:vector  ETV
attr interpolationmode  sample-hold
attr source  transmissionStateChanged
attr title  "Radio transmission state, vector"
vector 118  car_host_30.hostB6.wlan[0].radio  transmissionState:vector  ETV
attr interpolationmode  sample-hold
attr source  transmissionStateChanged
attr title  "Radio transmission state, vector"
vector 34  car_host_30.hostB.wlan[0].radio  transmissionState:vector  ETV
attr interpolationmode  sample-hold
attr source  transmissionStateChanged
attr title  "Radio transmission state, vector"
vector 142  car_host_30.hostB8.wlan[0].radio  transmissionState:vector  ETV
attr interpolationmode  sample-hold
attr source  transmissionStateChanged
attr title  "Radio transmission state, vector"
vector 52  car_host_30.hostB2.wlan[0].radio  transmissionState:vector  ETV
attr interpolationmode  sample-hold
attr source  transmissionStateChanged
attr title  "Radio transmission state, vector"
vector 208  car_host_30.hostB14.wlan[0].radio  transmissionState:vector  ETV
attr interpolationmode  sample-hold
attr source  transmissionStateChanged
attr title  "Radio transmission state, vector"
vector 130  car_host_30.hostC8.wlan[0].radio  transmissionState:vector  ETV
attr interpolationmode  sample-hold
attr source  transmissionStateChanged
attr title  "Radio transmission state, vector"
vector 58  car_host_30.hostB3.wlan[0].radio  transmissionState:vector  ETV
attr interpolationmode  sample-hold
attr source  transmissionStateChanged
attr title  "Radio transmission state, vector"
vector 196  car_host_30.hostC14.wlan[0].radio  transmissionState:vector  ETV
attr interpolationmode  sample-hold
attr source  transmissionStateChanged
attr title  "Radio transmission state, vector"
vector 112  car_host_30.hostC7.wlan[0].radio  transmissionState:vector  ETV
attr interpolationmode  sample-hold
attr source  transmissionStateChanged
attr title  "Radio transmission state, vector"
vector 106  car_host_30.hostB5.wlan[0].radio  transmissionState:vector  ETV
attr interpolationmode  sample-hold
attr source  transmissionStateChanged
attr title  "Radio transmission state, vector"
vector 166  car_host_30.hostB10.wlan[0].radio  transmissionState:vector  ETV
attr interpolationmode  sample-hold
attr source  transmissionStateChanged
attr title  "Radio transmission state, vector"
vector 76  car_host_30.hostC2.wlan[0].radio  transmissionState:vector  ETV
attr interpolationmode  sample-hold
attr source  transmissionStateChanged
attr title  "Radio transmission state, vector"
vector 136  car_host_30.hostC9.wlan[0].radio  transmissionState:vector  ETV
attr interpolationmode  sample-hold
attr source  transmissionStateChanged
attr title  "Radio transmission state, vector"
vector 172  car_host_30.hostC12.wlan[0].radio  transmissionState:vector  ETV
attr interpolationmode  sample-hold
attr source  transmissionStateChanged
attr title  "Radio transmission state, vector"
vector 40  car_host_30.hostC.wlan[0].radio  transmissionState:vector  ETV
attr interpolationmode  sample-hold
attr source  transmissionStateChanged
attr title  "Radio transmission state, vector"
vector 94  car_host_30.hostC5.wlan[0].radio  transmissionState:vector  ETV
attr interpolationmode  sample-hold
attr source  transmissionStateChanged
attr title  "Radio transmission state, vector"
vector 82  car_host_30.hostC3.wlan[0].radio  transmissionState:vector  ETV
attr interpolationmode  sample-hold
attr source  transmissionStateChanged
attr title  "Radio transmission state, vector"
vector 28  car_host_30.hostD.wlan[0].radio  transmissionState:vector  ETV
attr interpolationmode  sample-hold
attr source  transmissionStateChanged
attr title  "Radio transmission state, vector"
vector 190  car_host_30.hostC13.wlan[0].radio  transmissionState:vector  ETV
attr interpolationmode  sample-hold
attr source  transmissionStateChanged
attr title  "Radio transmission state, vector"
vector 154  car_host_30.hostC10.wlan[0].radio  transmissionState:vector  ETV
attr interpolationmode  sample-hold
attr source  transmissionStateChanged
attr title  "Radio transmission state, vector"
vector 88  car_host_30.hostC4.wlan[0].radio  transmissionState:vector  ETV
attr interpolationmode  sample-hold
attr source  transmissionStateChanged
attr title  "Radio transmission state, vector"
vector 19  car_host_30.hostD.udp  rcvdPk:vector(packetBytes)  ETV
attr interpolationmode  none
attr source  rcvdPk
attr title  "packets received, vector(packetBytes)"
vector 20  car_host_30.hostD.udp  passedUpPk:vector(count)  ETV
attr interpolationmode  none
attr title  "packets passed up, vector(count)"
vector 15  car_host_30.hostD.udpApp[0]  rcvdPk:vector(packetBytes)  ETV
attr interpolationmode  none
attr source  rcvdPk
attr title  "packets received, vector(packetBytes)"
vector 16  car_host_30.hostD.udpApp[0]  endToEndDelay:vector  ETV
attr interpolationmode  none
attr source  messageAge(rcvdPk)
attr title  "end-to-end delay, vector"
attr unit  s
vector 17  car_host_30.hostD.udpApp[0]  rcvdPkSeqNo:vector  ETV
attr interpolationmode  none
attr source  appPkSeqNo(rcvdPk)
attr title  "received packet sequence number, vector"
vector 70  car_host_30.hostC1.wlan[0].radio  transmissionState:vector  ETV
attr interpolationmode  sample-hold
attr source  transmissionStateChanged
attr title  "Radio transmission state, vector"
vector 160  car_host_30.hostC11.wlan[0].radio  transmissionState:vector  ETV
attr interpolationmode  sample-hold
attr source  transmissionStateChanged
attr title  "Radio transmission state, vector"
vector 100  car_host_30.hostC6.wlan[0].radio  transmissionState:vector  ETV
attr interpolationmode  sample-hold
attr source  transmissionStateChanged
attr title  "Radio transmission state, vector"
1	102	0.025	1000
1	768	0.05	1000
1	771	0.075	1000
1	774	0.1	1000
1	777	0.125	1000
1	780	0.15	1000
1	783	0.175	1000
1	786	0.2	1000
1	789	0.225	1000
1	792	0.25	1000
1	795	0.275	1000
1	798	0.3	1000
1	801	0.325	1000
1	1331	0.35	1000
1	2908	0.375	1000
1	2911	0.4	1000
1	2914	0.425	1000
1	2917	0.45	1000
1	2920	0.475	1000
1	2923	0.5	1000
1	2926	0.525	1000
1	2929	0.55	1000
1	2932	0.575	1000
1	2935	0.6	1000
1	2938	0.625	1000
1	2941	0.65	1000
1	2944	0.675	1000
1	2947	0.7	1000
1	2950	0.725	1000
1	2953	0.75	1000
1	2956	0.775	1000
1	2959	0.8	1000
1	2963	0.825	1000
1	5952	0.85	1000
1	6303	0.875	1000
1	6605	0.9	1000
1	6907	0.925	1000
1	7209	0.95	1000
1	7472	0.975	1000
1	7843	1	1000
1	8074	1.025	1000
1	8335	1.05	1000
1	8607	1.075	1000
1	8940	1.1	1000
1	9242	1.125	1000
1	9543	1.15	1000
1	9774	1.175	1000
1	10145	1.2	1000
1	10414	1.225	1000
1	10606	1.25	1000
1	10722	1.275	1000
1	10912	1.3	1000
1	11028	1.325	1000
1	11218	1.35	1000
1	11334	1.375	1000
1	11524	1.4	1000
1	11640	1.425	1000
1	11830	1.45	1000
1	11946	1.475	1000
1	12136	1.5	1000
1	12252	1.525	1000
1	12442	1.55	1000
1	12558	1.575	1000
1	12748	1.6	1000
1	12864	1.625	1000
1	13054	1.65	1000
1	13170	1.675	1000
1	13360	1.7	1000
1	13476	1.725	1000
1	13666	1.75	1000
1	13782	1.775	1000
1	13972	1.8	1000
1	14088	1.825	1000
1	14278	1.85	1000
1	14394	1.875	1000
1	14584	1.9	1000
1	14700	1.925	1000
1	14890	1.95	1000
1	15006	1.975	1000
1	15228	2	1000
1	15344	2.025	1000
1	15538	2.05	1000
1	15654	2.075	1000
1	15886	2.1	1000
1	16078	2.125	1000
1	16194	2.15	1000
1	16384	2.175	1000
1	16618	2.2	1000
1	16734	2.225	1000
1	16924	2.25	1000
1	17040	2.275	1000
1	17230	2.3	1000
1	17541	2.325	1000
1	17665	2.35	1000
1	17903	2.375	1000
1	18019	2.4	1000
1	18209	2.425	1000
1	18325	2.45	1000
1	18515	2.475	1000
1	18631	2.5	1000
1	18821	2.525	1000
1	19132	2.55	1000
1	19255	2.575	1000
1	19445	2.6	1000
1	19561	2.625	1000
1	19751	2.65	1000
1	19867	2.675	1000
1	20057	2.7	1000
1	20173	2.725	1000
1	20363	2.75	1000
1	20479	2.775	1000
1	20669	2.8	1000
1	20785	2.825	1000
1	21176	2.85	1000
1	21292	2.875	1000
1	21482	2.9	1000
1	21793	2.925	1000
1	21916	2.95	1000
1	22106	2.975	1000
1	22449	3	1000
1	22572	3.025	1000
1	22762	3.05	1000
1	22878	3.075	1000
1	23068	3.1	1000
1	23184	3.125	1000
1	23374	3.15	1000
1	23490	3.175	1000
1	23680	3.2	1000
1	23796	3.225	1000
1	23986	3.25	1000
1	24102	3.275	1000
1	24292	3.3	1000
1	24408	3.325	1000
1	24484	3.35	1000
1	24674	3.375	1000
1	24790	3.4	1000
1	24980	3.425	1000
1	25096	3.45	1000
1	25286	3.475	1000
1	25402	3.5	1000
1	25592	3.525	1000
1	25708	3.55	1000
1	25898	3.575	1000
1	26014	3.6	1000
1	26204	3.625	1000
1	26320	3.65	1000
1	26510	3.675	1000
1	26626	3.7	1000
1	26816	3.725	1000
1	26932	3.75	1000
1	27122	3.775	1000
1	27238	3.8	1000
1	27428	3.825	1000
1	27544	3.85	1000
1	27620	3.875	1000
1	27810	3.9	1000
1	27926	3.925	1000
1	28116	3.95	1000
1	28232	3.975	1000
1	28454	4	1000
1	28570	4.025	1000
1	28760	4.05	1000
1	28876	4.075	1000
1	29066	4.1	1000
1	29182	4.125	1000
1	29372	4.15	1000
1	29488	4.175	1000
1	29564	4.2	1000
1	29754	4.225	1000
1	30065	4.25	1000
1	30188	4.275	1000
1	30378	4.3	1000
1	30494	4.325	1000
1	30684	4.35	1000
1	30800	4.375	1000
1	30990	4.4	1000
1	31301	4.425	1000
1	31424	4.45	1000
1	31500	4.475	1000
1	31690	4.5	1000
1	31806	4.525	1000
1	31999	4.55	1000
1	32115	4.575	1000
1	32305	4.6	1000
1	32616	4.625	1000
1	32739	4.65	1000
1	32929	4.675	1000
1	33045	4.7	1000
1	33235	4.725	1000
1	33351	4.75	1000
1	33541	4.775	1000
1	33658	4.8	1000
1	33849	4.825	1000
1	33966	4.85	1000
1	34156	4.875	1000
1	34272	4.9	1000
1	34462	4.925	1000
1	34578	4.95	1000
1	34768	4.975	1000
1	34916	5	1000
1	35106	5.025	1000
1	35222	5.05	1000
1	35298	5.075	1000
1	35488	5.1	1000
1	35604	5.125	1000
1	35794	5.15	1000
1	35910	5.175	1000
1	36100	5.2	1000
1	36216	5.225	1000
1	36406	5.25	1000
1	36522	5.275	1000
1	36712	5.3	1000
1	36828	5.325	1000
1	37018	5.35	1000
1	37134	5.375	1000
1	37210	5.4	1000
1	37400	5.425	1000
1	37516	5.45	1000
1	37706	5.475	1000
1	37822	5.5	1000
1	38012	5.525	1000
1	38128	5.55	1000
1	38204	5.575	1000
1	38394	5.6	1000
1	38510	5.625	1000
1	38700	5.65	1000
1	38816	5.675	1000
1	39006	5.7	1000
1	39122	5.725	1000
1	39312	5.75	1000
1	39428	5.775	1000
1	39618	5.8	1000
1	39734	5.825	1000
1	39924	5.85	1000
1	40040	5.875	1000
1	40230	5.9	1000
1	40346	5.925	1000
1	40536	5.95	1000
1	40656	5.975	1000
1	40878	6	1000
1	40994	6.025	1000
1	41189	6.05	1000
1	41305	6.075	1000
1	41495	6.1	1000
1	41613	6.125	1000
1	41803	6.15	1000
1	41919	6.175	1000
1	42114	6.2	1000
1	42230	6.225	1000
1	42420	6.25	1000
1	42541	6.275	1000
1	42731	6.3	1000
1	42847	6.325	1000
1	43042	6.35	1000
1	43158	6.375	1000
1	43348	6.4	1000
1	43467	6.425	1000
1	43657	6.45	1000
1	43773	6.475	1000
1	43963	6.5	1000
1	44079	6.525	1000
1	44269	6.55	1000
1	44385	6.575	1000
1	44575	6.6	1000
1	44889	6.625	1000
1	45012	6.65	1000
1	45202	6.675	1000
1	45318	6.7	1000
1	45508	6.725	1000
1	45624	6.75	1000
1	45815	6.775	1000
1	45932	6.8	1000
1	46123	6.825	1000
1	46239	6.85	1000
1	46429	6.875	1000
1	46663	6.9	1000
1	46779	6.925	1000
1	46969	6.95	1000
1	47085	6.975	1000
1	47307	7	1000
1	47423	7.025	1000
1	47613	7.05	1000
1	47729	7.075	1000
1	47805	7.1	1000
1	47995	7.125	1000
1	48111	7.15	1000
1	48301	7.175	1000
1	48417	7.2	1000
1	48607	7.225	1000
1	48723	7.25	1000
1	48913	7.275	1000
1	49029	7.3	1000
1	49219	7.325	1000
1	49335	7.35	1000
1	49525	7.375	1000
1	49641	7.4	1000
1	49831	7.425	1000
1	49947	7.45	1000
1	50137	7.475	1000
1	50253	7.5	1000
1	50443	7.525	1000
1	50559	7.55	1000
1	50749	7.575	1000
1	50865	7.6	1000
1	51055	7.625	1000
1	51171	7.65	1000
1	51361	7.675	1000
1	51477	7.7	1000
1	51667	7.725	1000
1	51783	7.75	1000
1	51973	7.775	1000
1	52089	7.8	1000
1	52279	7.825	1000
1	52395	7.85	1000
1	52585	7.875	1000
1	52701	7.9	1000
1	52891	7.925	1000
1	53007	7.95	1000
1	53197	7.975	1000
1	53345	8	1000
1	53535	8.025	1000
1	53651	8.05	1000
1	53841	8.075	1000
1	53957	8.1	1000
1	54147	8.125	1000
1	54263	8.15	1000
1	54453	8.175	1000
1	54764	8.2	1000
1	54887	8.225	1000
1	55077	8.25	1000
1	55193	8.275	1000
1	55383	8.3	1000
1	55617	8.325	1000
1	55733	8.35	1000
1	55923	8.375	1000
1	56039	8.4	1000
1	56229	8.425	1000
1	56345	8.45	1000
1	56535	8.475	1000
1	56846	8.5	1000
1	56969	8.525	1000
1	57159	8.55	1000
1	57275	8.575	1000
1	57465	8.6	1000
1	57584	8.625	1000
1	57774	8.65	1000
1	57890	8.675	1000
1	58080	8.7	1000
1	58196	8.725	1000
1	58386	8.75	1000
1	58699	8.775	1000
1	58822	8.8	1000
1	59013	8.825	1000
1	59129	8.85	1000
1	59319	8.875	1000
1	59435	8.9	1000
1	59625	8.925	1000
1	59741	8.95	1000
1	59931	8.975	1000
1	60079	9	1000
1	60269	9.025	1000
1	60385	9.05	1000
1	60575	9.075	1000
1	60691	9.1	1000
1	60881	9.125	1000
1	60997	9.15	1000
1	61187	9.175	1000
1	61303	9.2	1000
1	61493	9.225	1000
1	61609	9.25	1000
1	61799	9.275	1000
1	61915	9.3	1000
1	62105	9.325	1000
1	62221	9.35	1000
1	62411	9.375	1000
1	62527	9.4	1000
1	62717	9.425	1000
1	62833	9.45	1000
1	63023	9.475	1000
1	63139	9.5	1000
1	63329	9.525	1000
1	63445	9.55	1000
1	63635	9.575	1000
1	63751	9.6	1000
1	63941	9.625	1000
1	64057	9.65	1000
1	64247	9.675	1000
1	64363	9.7	1000
1	64553	9.725	1000
1	64669	9.75	1000
1	64859	9.775	1000
1	64975	9.8	1000
1	65165	9.825	1000
1	65281	9.85	1000
1	65357	9.875	1000
1	65547	9.9	1000
1	65663	9.925	1000
1	65853	9.95	1000
1	65969	9.975	1000
1	66191	10	1000
1	66307	10.025	1000
1	66497	10.05	1000
1	66613	10.075	1000
1	66689	10.1	1000
1	66879	10.125	1000
1	66995	10.15	1000
1	67185	10.175	1000
1	67301	10.2	1000
1	67491	10.225	1000
1	67607	10.25	1000
1	67797	10.275	1000
1	67913	10.3	1000
1	68103	10.325	1000
1	68219	10.35	1000
1	68409	10.375	1000
1	68525	10.4	1000
1	68715	10.425	1000
1	68831	10.45	1000
1	69021	10.475	1000
1	69140	10.5	1000
1	69330	10.525	1000
1	69446	10.55	1000
1	69636	10.575	1000
1	69947	10.6	1000
1	70070	10.625	1000
1	70260	10.65	1000
1	70376	10.675	1000
1	70566	10.7	1000
1	70682	10.725	1000
1	70874	10.75	1000
1	70993	10.775	1000
1	71183	10.8	1000
1	71300	10.825	1000
1	71490	10.85	1000
1	71801	10.875	1000
1	71924	10.9	1000
1	72114	10.925	1000
1	72230	10.95	1000
1	72420	10.975	1000
1	72568	11	1000
1	72758	11.025	1000
1	72874	11.05	1000
1	73064	11.075	1000
1	73180	11.1	1000
1	73370	11.125	1000
1	73486	11.15	1000
1	73562	11.175	1000
1	73752	11.2	1000
1	74063	11.225	1000
1	74186	11.25	1000
1	74376	11.275	1000
1	74492	11.3	1000
1	74682	11.325	1000
1	74798	11.35	1000
1	74988	11.375	1000
1	75104	11.4	1000
1	75294	11.425	1000
1	75410	11.45	1000
1	75600	11.475	1000
1	75716	11.5	1000
1	75906	11.525	1000
1	76022	11.55	1000
1	76212	11.575	1000
1	76523	11.6	1000
1	76646	11.625	1000
1	76836	11.65	1000
1	76952	11.675	1000
1	77142	11.7	1000
1	77258	11.725	1000
1	77448	11.75	1000
1	77564	11.775	1000
1	77754	11.8	1000
1	77870	11.825	1000
1	78060	11.85	1000
1	78176	11.875	1000
1	78366	11.9	1000
1	78482	11.925	1000
1	78672	11.95	1000
1	78788	11.975	1000
1	79010	12	1000
1	79126	12.025	1000
1	79320	12.05	1000
1	79436	12.075	1000
1	79626	12.1	1000
1	79742	12.125	1000
1	79932	12.15	1000
1	80048	12.175	1000
1	80238	12.2	1000
1	80354	12.225	1000
1	80544	12.25	1000
1	80660	12.275	1000
1	80850	12.3	1000
1	80966	12.325	1000
1	81157	12.35	1000
1	81321	12.375	1000
1	81511	12.4	1000
1	81627	12.425	1000
1	81817	12.45	1000
1	81933	12.475	1000
1	82123	12.5	1000
1	82357	12.525	1000
1	82473	12.55	1000
1	82663	12.575	1000
1	82779	12.6	1000
1	82969	12.625	1000
1	83085	12.65	1000
1	83275	12.675	1000
1	83391	12.7	1000
1	83581	12.725	1000
1	83697	12.75	1000
1	83887	12.775	1000
1	84003	12.8	1000
1	84193	12.825	1000
1	84510	12.85	1000
1	84700	12.875	1000
1	84816	12.9	1000
1	85006	12.925	1000
1	85122	12.95	1000
1	85312	12.975	1000
1	85460	13	1000
1	85536	13.025	1000
1	85726	13.05	1000
1	85842	13.075	1000
1	86032	13.1	1000
1	86148	13.125	1000
1	86224	13.15	1000
1	86414	13.175	1000
1	86530	13.2	1000
1	86720	13.225	1000
1	86836	13.25	1000
1	87026	13.275	1000
1	87142	13.3	1000
1	87332	13.325	1000
1	87448	13.35	1000
1	87638	13.375	1000
1	87754	13.4	1000
1	87944	13.425	1000
1	88060	13.45	1000
1	88250	13.475	1000
1	88366	13.5	1000
1	88556	13.525	1000
1	88672	13.55	1000
1	88862	13.575	1000
1	88981	13.6	1000
1	89171	13.625	1000
1	89287	13.65	1000
1	89477	13.675	1000
1	89593	13.7	1000
1	89783	13.725	1000
1	89899	13.75	1000
1	90089	13.775	1000
1	90205	13.8	1000
1	90395	13.825	1000
1	90511	13.85	1000
1	90701	13.875	1000
1	90817	13.9	1000
1	91007	13.925	1000
1	91123	13.95	1000
1	91313	13.975	1000
1	91461	14	1000
1	91651	14.025	1000
1	91767	14.05	1000
1	91957	14.075	1000
1	92073	14.1	1000
1	92263	14.125	1000
1	92379	14.15	1000
1	92569	14.175	1000
1	92685	14.2	1000
1	92875	14.225	1000
1	93192	14.25	1000
1	93596	14.275	1000
1	93786	14.3	1000
1	93902	14.325	1000
1	94092	14.35	1000
1	94208	14.375	1000
1	94398	14.4	1000
1	94514	14.425	1000
1	94704	14.45	1000
1	94820	14.475	1000
1	95010	14.5	1000
1	95126	14.525	1000
1	95316	14.55	1000
1	95432	14.575	1000
1	95622	14.6	1000
1	95738	14.625	1000
1	95814	14.65	1000
1	96004	14.675	1000
1	96120	14.7	1000
1	96310	14.725	1000
1	96426	14.75	1000
1	96616	14.775	1000
1	96732	14.8	1000
1	96925	14.825	1000
1	97613	14.85	1000
1	98406	14.875	1000
1	98409	14.9	1000
1	98412	14.925	1000
1	98415	14.95	1000
1	98418	14.975	1000
1	98453	15	1000
1	98456	15.025	1000
1	98459	15.05	1000
1	98462	15.075	1000
1	98465	15.1	1000
1	98468	15.125	1000
1	98471	15.15	1000
1	98510	15.175	1000
1	100301	15.2	1000
1	100304	15.225	1000
1	100307	15.25	1000
1	100310	15.275	1000
1	100313	15.3	1000
1	100316	15.325	1000
1	100319	15.35	1000
1	100322	15.375	1000
1	100325	15.4	1000
1	100328	15.425	1000
1	100331	15.45	1000
1	100334	15.475	1000
1	100337	15.5	1000
1	100340	15.525	1000
1	100343	15.55	1000
1	100346	15.575	1000
1	100349	15.6	1000
1	100352	15.625	1000
1	100356	15.65	1000
1	103184	15.675	1000
1	103193	15.7	1000
1	103196	15.725	1000
1	103199	15.75	1000
1	103202	15.775	1000
1	103205	15.8	1000
1	103208	15.825	1000
1	103211	15.85	1000
1	103214	15.875	1000
1	103217	15.9	1000
1	103220	15.925	1000
1	103223	15.95	1000
1	103226	15.975	1000
1	103261	16	1000
1	103264	16.025	1000
1	103267	16.05	1000
1	103270	16.075	1000
1	103273	16.1	1000
1	103276	16.125	1000
1	103279	16.15	1000
1	103282	16.175	1000
1	103285	16.2	1000
1	103288	16.225	1000
1	103291	16.25	1000
1	103294	16.275	1000
1	104610	16.3	1000
1	106176	16.325	1000
1	106179	16.35	1000
1	106182	16.375	1000
1	106185	16.4	1000
1	106188	16.425	1000
1	106191	16.45	1000
1	106194	16.475	1000
1	106197	16.5	1000
1	106200	16.525	1000
1	106203	16.55	1000
1	106206	16.575	1000
1	106209	16.6	1000
1	106212	16.625	1000
1	106215	16.65	1000
1	106218	16.675	1000
1	106221	16.7	1000
1	106224	16.725	1000
1	106227	16.75	1000
1	106230	16.775	1000
1	106233	16.8	1000
1	106236	16.825	1000
1	106239	16.85	1000
1	106242	16.875	1000
1	106245	16.9	1000
1	106248	16.925	1000
1	106251	16.95	1000
1	106254	16.975	1000
1	106289	17	1000
1	106292	17.025	1000
1	106295	17.05	1000
1	106298	17.075	1000
1	106301	17.1	1000
1	106304	17.125	1000
1	106307	17.15	1000
1	106310	17.175	1000
1	106340	17.2	1000
1	106343	17.225	1000
1	106346	17.25	1000
1	106349	17.275	1000
1	106352	17.3	1000
1	106355	17.325	1000
1	106358	17.35	1000
1	106361	17.375	1000
1	106364	17.4	1000
1	106367	17.425	1000
1	106370	17.45	1000
1	106373	17.475	1000
1	106376	17.5	1000
1	106379	17.525	1000
1	106382	17.55	1000
1	106385	17.575	1000
1	106388	17.6	1000
1	106391	17.625	1000
1	106394	17.65	1000
1	106452	17.675	1000
1	106455	17.7	1000
1	106458	17.725	1000
1	106461	17.75	1000
1	106464	17.775	1000
1	106467	17.8	1000
1	106470	17.825	1000
1	106473	17.85	1000
1	106476	17.875	1000
1	106479	17.9	1000
1	106482	17.925	1000
1	106485	17.95	1000
1	106488	17.975	1000
1	106523	18	1000
1	106526	18.025	1000
1	106529	18.05	1000
1	106532	18.075	1000
1	106535	18.1	1000
1	106538	18.125	1000
1	106541	18.15	1000
1	106544	18.175	1000
1	106547	18.2	1000
1	106550	18.225	1000
1	106553	18.25	1000
1	106556	18.275	1000
1	106659	18.3	1000
1	106769	18.325	1000
1	106772	18.35	1000
1	106775	18.375	1000
1	106778	18.4	1000
1	106781	18.425	1000
1	106784	18.45	1000
1	106787	18.475	1000
1	106790	18.5	1000
1	106793	18.525	1000
1	106796	18.55	1000
1	106799	18.575	1000
1	106802	18.6	1000
1	106805	18.625	1000
1	106808	18.65	1000
1	106811	18.675	1000
1	106814	18.7	1000
1	106817	18.725	1000
1	106820	18.75	1000
1	106823	18.775	1000
1	106826	18.8	1000
1	106829	18.825	1000
1	106832	18.85	1000
1	106835	18.875	1000
1	106838	18.9	1000
1	106841	18.925	1000
1	106844	18.95	1000
1	106847	18.975	1000
1	106882	19	1000
1	106885	19.025	1000
1	106888	19.05	1000
1	106891	19.075	1000
1	106894	19.1	1000
1	106897	19.125	1000
1	106900	19.15	1000
1	106903	19.175	1000
1	106906	19.2	1000
1	106909	19.225	1000
1	106913	19.25	1000
1	110033	19.275	1000
1	110574	19.3	1000
1	110839	19.325	1000
1	111182	19.35	1000
1	111410	19.375	1000
1	111750	19.4	1000
1	112081	19.425	1000
1	112423	19.45	1000
1	113138	19.475	1000
1	113366	19.5	1000
1	113592	19.525	1000
1	113887	19.55	1000
1	114355	19.575	1000
1	114785	19.6	1000
1	115376	19.625	1000
1	115692	19.65	1000
1	115849	19.675	1000
1	116079	19.7	1000
1	116685	19.725	1000
1	117137	19.75	1000
1	117640	19.775	1000
1	118387	19.8	1000
1	118393	19.825	1000
1	118396	19.85	1000
1	118399	19.875	1000
1	118402	19.9	1000
1	118405	19.925	1000
1	118408	19.95	1000
1	118411	19.975	1000
1	118446	20	1000
1	118449	20.025	1000
1	118452	20.05	1000
1	118455	20.075	1000
1	118581	20.1	1000
1	120638	20.125	1000
1	120641	20.15	1000
1	120644	20.175	1000
1	120647	20.2	1000
1	120650	20.225	1000
1	120653	20.25	1000
1	120656	20.275	1000
1	120659	20.3	1000
1	120662	20.325	1000
1	120665	20.35	1000
1	120668	20.375	1000
1	120671	20.4	1000
1	120674	20.425	1000
1	120677	20.45	1000
1	120680	20.475	1000
1	120683	20.5	1000
1	120686	20.525	1000
1	120689	20.55	1000
1	120693	20.575	1000
1	123628	20.6	1000
1	123642	20.625	1000
1	123645	20.65	1000
1	123648	20.675	1000
1	123651	20.7	1000
1	123654	20.725	1000
1	123657	20.75	1000
1	123660	20.775	1000
1	123663	20.8	1000
1	123666	20.825	1000
1	123669	20.85	1000
1	123672	20.875	1000
1	123675	20.9	1000
1	123678	20.925	1000
1	123681	20.95	1000
1	123684	20.975	1000
1	123719	21	1000
1	123722	21.025	1000
1	123725	21.05	1000
1	123728	21.075	1000
1	123731	21.1	1000
1	123734	21.125	1000
1	123737	21.15	1000
1	123740	21.175	1000
1	123743	21.2	1000
1	125265	21.225	1000
1	126603	21.25	1000
1	126617	21.275	1000
1	126620	21.3	1000
1	126623	21.325	1000
1	126626	21.35	1000
1	126629	21.375	1000
1	126632	21.4	1000
1	126635	21.425	1000
1	126638	21.45	1000
1	126641	21.475	1000
1	126644	21.5	1000
1	126647	21.525	1000
1	126650	21.55	1000
1	126653	21.575	1000
1	126656	21.6	1000
1	126659	21.625	1000
1	126662	21.65	1000
1	126665	21.675	1000
1	126668	21.7	1000
1	126671	21.725	1000
1	126674	21.75	1000
1	126677	21.775	1000
1	126680	21.8	1000
1	126683	21.825	1000
1	126686	21.85	1000
1	126689	21.875	1000
1	126692	21.9	1000
1	126695	21.925	1000
1	126698	21.95	1000
1	126701	21.975	1000
1	126736	22	1000
1	126739	22.025	1000
1	126742	22.05	1000
1	126745	22.075	1000
1	126748	22.1	1000
1	126782	22.125	1000
1	126785	22.15	1000
1	126788	22.175	1000
1	126791	22.2	1000
1	126794	22.225	1000
1	126797	22.25	1000
1	126800	22.275	1000
1	126803	22.3	1000
1	126806	22.325	1000
1	126809	22.35	1000
1	126812	22.375	1000
1	126815	22.4	1000
1	126818	22.425	1000
1	126821	22.45	1000
1	126824	22.475	1000
1	126827	22.5	1000
1	126830	22.525	1000
1	126833	22.55	1000
1	126836	22.575	1000
1	126897	22.6	1000
1	126900	22.625	1000
1	126903	22.65	1000
1	126906	22.675	1000
1	126909	22.7	1000
1	126912	22.725	1000
1	126915	22.75	1000
1	126918	22.775	1000
1	126921	22.8	1000
1	126924	22.825	1000
1	126927	22.85	1000
1	126930	22.875	1000
1	126933	22.9	1000
1	126936	22.925	1000
1	126939	22.95	1000
1	126942	22.975	1000
1	126977	23	1000
1	126980	23.025	1000
1	126983	23.05	1000
1	126986	23.075	1000
1	126989	23.1	1000
1	126992	23.125	1000
1	126995	23.15	1000
1	126998	23.175	1000
1	127001	23.2	1000
1	127126	23.225	1000
1	127203	23.25	1000
1	127207	23.275	1000
1	127210	23.3	1000
1	127213	23.325	1000
1	127216	23.35	1000
1	127219	23.375	1000
1	127222	23.4	1000
1	127225	23.425	1000
1	127228	23.45	1000
1	127231	23.475	1000
1	127234	23.5	1000
1	127237	23.525	1000
1	127240	23.55	1000
1	127243	23.575	1000
1	127246	23.6	1000
1	127249	23.625	1000
1	127252	23.65	1000
1	127255	23.675	1000
1	127258	23.7	1000
1	127261	23.725	1000
1	127264	23.75	1000
1	127267	23.775	1000
1	127270	23.8	1000
1	127273	23.825	1000
1	127276	23.85	1000
1	127279	23.875	1000
1	127282	23.9	1000
1	127285	23.925	1000
1	127288	23.95	1000
1	127291	23.975	1000
1	127326	24	1000
1	127329	24.025	1000
1	127332	24.05	1000
1	127335	24.075	1000
1	127338	24.1	1000
1	127341	24.125	1000
1	127344	24.15	1000
1	127348	24.175	1000
1	130248	24.2	1000
1	130913	24.225	1000
1	131172	24.25	1000
1	131479	24.275	1000
1	131702	24.3	1000
1	132037	24.325	1000
1	132310	24.35	1000
1	132575	24.375	1000
1	132924	24.4	1000
1	133232	24.425	1000
1	133425	24.45	1000
1	133733	24.475	1000
1	133998	24.5	1000
1	134228	24.525	1000
1	134350	24.55	1000
1	134426	24.575	1000
1	134502	24.6	1000
1	134692	24.625	1000
1	134814	24.65	1000
1	135004	24.675	1000
1	135126	24.7	1000
1	135316	24.725	1000
1	135438	24.75	1000
1	135514	24.775	1000
1	135669	24.8	1000
1	135825	24.825	1000
1	135905	24.85	1000
1	135981	24.875	1000
1	136171	24.9	1000
1	136293	24.925	1000
1	136369	24.95	1000
1	136559	24.975	1000
1	136877	25	1000
1	137068	25.025	1000
1	137354	25.05	1000
1	137545	25.075	1000
1	137667	25.1	1000
1	137743	25.125	1000
1	137933	25.15	1000
1	138055	25.175	1000
1	138245	25.2	1000
1	138367	25.225	1000
1	138557	25.25	1000
1	138679	25.275	1000
1	138869	25.3	1000
1	138991	25.325	1000
1	139146	25.35	1000
1	139337	25.375	1000
1	139459	25.4	1000
1	139614	25.425	1000
1	139805	25.45	1000
1	139927	25.475	1000
1	140003	25.5	1000
1	140193	25.525	1000
1	140315	25.55	1000
1	140505	25.575	1000
1	140627	25.6	1000
1	140703	25.625	1000
1	140779	25.65	1000
1	140855	25.675	1000
1	141045	25.7	1000
1	141167	25.725	1000
1	141357	25.75	1000
1	141479	25.775	1000
1	141669	25.8	1000
1	141791	25.825	1000
1	141981	25.85	1000
1	142264	25.875	1000
1	142420	25.9	1000
1	142611	25.925	1000
1	142897	25.95	1000
1	143088	25.975	1000
1	143242	26	1000
1	143432	26.025	1000
1	143554	26.05	1000
1	143744	26.075	1000
1	143866	26.1	1000
1	143942	26.125	1000
1	144132	26.15	1000
1	144418	26.175	1000
1	144827	26.2	1000
1	144949	26.225	1000
1	145139	26.25	1000
1	145422	26.275	1000
1	145613	26.3	1000
1	145735	26.325	1000
1	145890	26.35	1000
1	146129	26.375	1000
1	146367	26.4	1000
1	146444	26.425	1000
1	146634	26.45	1000
1	146756	26.475	1000
1	146832	26.5	1000
1	147022	26.525	1000
1	147144	26.55	1000
1	147299	26.575	1000
1	147490	26.6	1000
1	147612	26.625	1000
1	147688	26.65	1000
1	147878	26.675	1000
1	148000	26.7	1000
1	148190	26.725	1000
1	148312	26.75	1000
1	148502	26.775	1000
1	148624	26.8	1000
1	148700	26.825	1000
1	148890	26.85	1000
1	149012	26.875	1000
1	149202	26.9	1000
1	149488	26.925	1000
1	149565	26.95	1000
1	149755	26.975	1000
1	149909	27	1000
1	149985	27.025	1000
1	150175	27.05	1000
1	150378	27.075	1000
1	150534	27.1	1000
1	150690	27.125	1000
1	150767	27.15	1000
1	150957	27.175	1000
1	151082	27.2	1000
1	151158	27.225	1000
1	151234	27.25	1000
1	151424	27.275	1000
1	151546	27.3	1000
1	151622	27.325	1000
1	151812	27.35	1000
1	151934	27.375	1000
1	152124	27.4	1000
1	152246	27.425	1000
1	152322	27.45	1000
1	152398	27.475	1000
1	152588	27.5	1000
1	152710	27.525	1000
1	152786	27.55	1000
1	152862	27.575	1000
1	153052	27.6	1000
1	153174	27.625	1000
1	153364	27.65	1000
1	153490	27.675	1000
1	153566	27.7	1000
1	153756	27.725	1000
1	153878	27.75	1000
1	154068	27.775	1000
1	154190	27.8	1000
1	154380	27.825	1000
1	154502	27.85	1000
1	154578	27.875	1000
1	154768	27.9	1000
1	154890	27.925	1000
1	155080	27.95	1000
1	155202	27.975	1000
1	155310	28	1000
1	155386	28.025	1000
1	155576	28.05	1000
1	155698	28.075	1000
1	155888	28.1	1000
1	156171	28.125	1000
1	156362	28.15	1000
1	156487	28.175	1000
1	156677	28.2	1000
1	156799	28.225	1000
1	156989	28.25	1000
1	157111	28.275	1000
1	157187	28.3	1000
1	157377	28.325	1000
1	157499	28.35	1000
1	157689	28.375	1000
1	157811	28.4	1000
1	158001	28.425	1000
1	158123	28.45	1000
1	158313	28.475	1000
1	158435	28.5	1000
1	158625	28.525	1000
1	158747	28.55	1000
1	158823	28.575	1000
1	158899	28.6	1000
1	159089	28.625	1000
1	159211	28.65	1000
1	159287	28.675	1000
1	159363	28.7	1000
1	159439	28.725	1000
1	159629	28.75	1000
1	159751	28.775	1000
1	159827	28.8	1000
1	160017	28.825	1000
1	160139	28.85	1000
1	160215	28.875	1000
1	160405	28.9	1000
1	160527	28.925	1000
1	160717	28.95	1000
1	161003	28.975	1000
1	161112	29	1000
1	161302	29.025	1000
1	161424	29.05	1000
1	161500	29.075	1000
1	161690	29.1	1000
1	161812	29.125	1000
1	161967	29.15	1000
1	162123	29.175	1000
1	162200	29.2	1000
1	162390	29.225	1000
1	162512	29.25	1000
1	162702	29.275	1000
1	162824	29.3	1000
1	162900	29.325	1000
1	163090	29.35	1000
1	163212	29.375	1000
1	163291	29.4	1000
1	163367	29.425	1000
1	163557	29.45	1000
1	163685	29.475	1000
1	163761	29.5	1000
1	163951	29.525	1000
1	164079	29.55	1000
1	164155	29.575	1000
1	164345	29.6	1000
1	164474	29.625	1000
1	164552	29.65	1000
1	164742	29.675	1000
1	164864	29.7	1000
1	164941	29.725	1000
1	165131	29.75	1000
1	165255	29.775	1000
1	165332	29.8	1000
1	165522	29.825	1000
1	165644	29.85	1000
1	165720	29.875	1000
1	165910	29.9	1000
1	166032	29.925	1000
1	166222	29.95	1000
1	166344	29.975	1000
1	166452	30	1000
1	166528	30.025	1000
1	166718	30.05	1000
1	166840	30.075	1000
1	166916	30.1	1000
1	167108	30.125	1000
1	167231	30.15	1000
1	167386	30.175	1000
1	167577	30.2	1000
1	167699	30.225	1000
1	167775	30.25	1000
1	167851	30.275	1000
1	168006	30.3	1000
1	168197	30.325	1000
1	168319	30.35	1000
1	168395	30.375	1000
1	168585	30.4	1000
1	168707	30.425	1000
1	168897	30.45	1000
1	169019	30.475	1000
1	169209	30.5	1000
1	169331	30.525	1000
1	169407	30.55	1000
1	169483	30.575	1000
1	169559	30.6	1000
1	169749	30.625	1000
1	169871	30.65	1000
1	170061	30.675	1000
1	170183	30.7	1000
1	170373	30.725	1000
1	170495	30.75	1000
1	170685	30.775	1000
1	170807	30.8	1000
1	170997	30.825	1000
1	171119	30.85	1000
1	171309	30.875	1000
1	171431	30.9	1000
1	171621	30.925	1000
1	171743	30.95	1000
1	171935	30.975	1000
1	172671	31	1000
1	173311	31.025	1000
1	173314	31.05	1000
1	173317	31.075	1000
1	173320	31.1	1000
1	173323	31.125	1000
1	173326	31.15	1000
1	173329	31.175	1000
1	173332	31.2	1000
1	173335	31.225	1000
1	173338	31.25	1000
1	173348	31.275	1000
1	173351	31.3	1000
1	173440	31.325	1000
1	175418	31.35	1000
1	175421	31.375	1000
1	175424	31.4	1000
1	175427	31.425	1000
1	175430	31.45	1000
1	175433	31.475	1000
1	175436	31.5	1000
1	175439	31.525	1000
1	175442	31.55	1000
1	175445	31.575	1000
1	175448	31.6	1000
1	175451	31.625	1000
1	175454	31.65	1000
1	175457	31.675	1000
1	175460	31.7	1000
1	175463	31.725	1000
1	175466	31.75	1000
1	175469	31.775	1000
1	175473	31.8	1000
1	178166	31.825	1000
1	178178	31.85	1000
1	178181	31.875	1000
1	178184	31.9	1000
1	178187	31.925	1000
1	178190	31.95	1000
1	178193	31.975	1000
1	178228	32	1000
1	178231	32.025	1000
1	178234	32.05	1000
1	178237	32.075	1000
1	178240	32.1	1000
1	178253	32.125	1000
1	178256	32.15	1000
1	178259	32.175	1000
1	178262	32.2	1000
1	178265	32.225	1000
1	178268	32.25	1000
1	178271	32.275	1000
1	178274	32.3	1000
1	178277	32.325	1000
1	178280	32.35	1000
1	178283	32.375	1000
1	178286	32.4	1000
1	178289	32.425	1000
1	179081	32.45	1000
1	181577	32.475	1000
1	182021	32.5	1000
1	182361	32.525	1000
1	182770	32.55	1000
1	183189	32.575	1000
1	183528	32.6	1000
1	183909	32.625	1000
1	184222	32.65	1000
1	184516	32.675	1000
1	184788	32.7	1000
1	185126	32.725	1000
1	185570	32.75	1000
1	186027	32.775	1000
1	186333	32.8	1000
1	186673	32.825	1000
1	187009	32.85	1000
1	187463	32.875	1000
1	187811	32.9	1000
1	188186	32.925	1000
1	188534	32.95	1000
1	188726	32.975	1000
1	189063	33	1000
1	189334	33.025	1000
1	189523	33.05	1000
1	189908	33.075	1000
1	190180	33.1	1000
1	190369	33.125	1000
1	190485	33.15	1000
1	190673	33.175	1000
1	191058	33.2	1000
1	191331	33.225	1000
1	191524	33.25	1000
1	191718	33.275	1000
1	191906	33.3	1000
1	192100	33.325	1000
1	192300	33.35	1000
1	192605	33.375	1000
1	192876	33.4	1000
1	193065	33.425	1000
1	193259	33.45	1000
1	193447	33.475	1000
1	193641	33.5	1000
1	193829	33.525	1000
1	194134	33.55	1000
1	194405	33.575	1000
1	194594	33.6	1000
1	194899	33.625	1000
1	195170	33.65	1000
1	195359	33.675	1000
1	195553	33.7	1000
1	195741	33.725	1000
1	195935	33.75	1000
1	196123	33.775	1000
1	196317	33.8	1000
1	196528	33.825	1000
1	196833	33.85	1000
1	197104	33.875	1000
1	197293	33.9	1000
1	197487	33.925	1000
1	197675	33.95	1000
1	197980	33.975	1000
1	198283	34	1000
1	198472	34.025	1000
1	198666	34.05	1000
1	198854	34.075	1000
1	199048	34.1	1000
1	199236	34.125	1000
1	199541	34.15	1000
1	199812	34.175	1000
1	200001	34.2	1000
1	200195	34.225	1000
1	200383	34.25	1000
1	200577	34.275	1000
1	200765	34.3	1000
1	200959	34.325	1000
1	201147	34.35	1000
1	201341	34.375	1000
1	201529	34.4	1000
1	201834	34.425	1000
1	202168	34.45	1000
1	202536	34.475	1000
1	202841	34.5	1000
1	203112	34.525	1000
1	203301	34.55	1000
1	203417	34.575	1000
1	203605	34.6	1000
1	203799	34.625	1000
1	203987	34.65	1000
1	204103	34.675	1000
1	204291	34.7	1000
1	204407	34.725	1000
1	204595	34.75	1000
1	204789	34.775	1000
1	204977	34.8	1000
1	205282	34.825	1000
1	205553	34.85	1000
1	205742	34.875	1000
1	206047	34.9	1000
1	206353	34.925	1000
1	206469	34.95	1000
1	206657	34.975	1000
1	206994	35	1000
1	207265	35.025	1000
1	207454	35.05	1000
1	207648	35.075	1000
1	207836	35.1	1000
1	208141	35.125	1000
1	208412	35.15	1000
1	208601	35.175	1000
1	208795	35.2	1000
1	208983	35.225	1000
1	209177	35.25	1000
1	209365	35.275	1000
1	209670	35.3	1000
1	209941	35.325	1000
1	210130	35.35	1000
1	210435	35.375	1000
1	210706	35.4	1000
1	210895	35.425	1000
1	211200	35.45	1000
1	211471	35.475	1000
1	211660	35.5	1000
1	211965	35.525	1000
1	212236	35.55	1000
1	212425	35.575	1000
1	212619	35.6	1000
1	212807	35.625	1000
1	212923	35.65	1000
1	213111	35.675	1000
1	213305	35.7	1000
1	213493	35.725	1000
1	213687	35.75	1000
1	213875	35.775	1000
1	214180	35.8	1000
1	214451	35.825	1000
1	214640	35.85	1000
1	214945	35.875	1000
1	215216	35.9	1000
1	215405	35.925	1000
1	215755	35.95	1000
1	215945	35.975	1000
1	216282	36	1000
1	216588	36.025	1000
1	216893	36.05	1000
1	217164	36.075	1000
1	217353	36.1	1000
1	217547	36.125	1000
1	217735	36.15	1000
1	217851	36.175	1000
1	218044	36.2	1000
1	218349	36.225	1000
1	218655	36.25	1000
1	218771	36.275	1000
1	218959	36.3	1000
1	219153	36.325	1000
1	219341	36.35	1000
1	219457	36.375	1000
1	219646	36.4	1000
1	219955	36.425	1000
1	220228	36.45	1000
1	220417	36.475	1000
1	220611	36.5	1000
1	220799	36.525	1000
1	221184	36.55	1000
1	221491	36.575	1000
1	221796	36.6	1000
1	222067	36.625	1000
1	222256	36.65	1000
1	222561	36.675	1000
1	222832	36.7	1000
1	223021	36.725	1000
1	223215	36.75	1000
1	223403	36.775	1000
1	223519	36.8	1000
1	223707	36.825	1000
1	224012	36.85	1000
1	224283	36.875	1000
1	224472	36.9	1000
1	224777	36.925	1000
1	225083	36.95	1000
1	225199	36.975	1000
1	225419	37	1000
1	225613	37.025	1000
1	225801	37.05	1000
1	225995	37.075	1000
1	226148	37.1	1000
1	226337	37.125	1000
1	226531	37.15	1000
1	226719	37.175	1000
1	227028	37.2	1000
1	227222	37.225	1000
1	227410	37.25	1000
1	227681	37.275	1000
1	227870	37.3	1000
1	228064	37.325	1000
1	228252	37.35	1000
1	228368	37.375	1000
1	228556	37.4	1000
1	228750	37.425	1000
1	228938	37.45	1000
1	229243	37.475	1000
1	229514	37.5	1000
1	229704	37.525	1000
1	229820	37.55	1000
1	230008	37.575	1000
1	230314	37.6	1000
1	230585	37.625	1000
1	230739	37.65	1000
1	230933	37.675	1000
1	231238	37.7	1000
1	231509	37.725	1000
1	231701	37.75	1000
1	232006	37.775	1000
1	232277	37.8	1000
1	232471	37.825	1000
1	232776	37.85	1000
1	233047	37.875	1000
1	233241	37.9	1000
1	233512	37.925	1000
1	233701	37.95	1000
1	233895	37.975	1000
1	234115	38	1000
1	234309	38.025	1000
1	234497	38.05	1000
1	234691	38.075	1000
1	234879	38.1	1000
1	234995	38.125	1000
1	235183	38.15	1000
1	235488	38.175	1000
1	235759	38.2	1000
1	235950	38.225	1000
1	236145	38.25	1000
1	236333	38.275	1000
1	236449	38.3	1000
1	236638	38.325	1000
1	236833	38.35	1000
1	237021	38.375	1000
1	237408	38.4	1000
1	237680	38.425	1000
1	237869	38.45	1000
1	238063	38.475	1000
1	238251	38.5	1000
1	238556	38.525	1000
1	238827	38.55	1000
1	239016	38.575	1000
1	239210	38.6	1000
1	239398	38.625	1000
1	239514	38.65	1000
1	239702	38.675	1000
1	240011	38.7	1000
1	240127	38.725	1000
1	240315	38.75	1000
1	240620	38.775	1000
1	240891	38.8	1000
1	241080	38.825	1000
1	241274	38.85	1000
1	241462	38.875	1000
1	241656	38.9	1000
1	241844	38.925	1000
1	242038	38.95	1000
1	242226	38.975	1000
1	242452	39	1000
1	242640	39.025	1000
1	242910	39.05	1000
1	243099	39.075	1000
1	243293	39.1	1000
1	243481	39.125	1000
1	243786	39.15	1000
1	244057	39.175	1000
1	244246	39.2	1000
1	244440	39.225	1000
1	244628	39.25	1000
1	244744	39.275	1000
1	244932	39.3	1000
1	245203	39.325	1000
1	245392	39.35	1000
1	245508	39.375	1000
1	245696	39.4	1000
1	246001	39.425	1000
1	246307	39.45	1000
1	246423	39.475	1000
1	246576	39.5	1000
1	246765	39.525	1000
1	247070	39.55	1000
1	247341	39.575	1000
1	247530	39.6	1000
1	247915	39.625	1000
1	248187	39.65	1000
1	248376	39.675	1000
1	248570	39.7	1000
1	248758	39.725	1000
1	249143	39.75	1000
1	249415	39.775	1000
1	249604	39.8	1000
1	249798	39.825	1000
1	249986	39.85	1000
1	250291	39.875	1000
1	250562	39.9	1000
1	250751	39.925	1000
1	251022	39.95	1000
1	251211	39.975	1000
1	251359	40	1000
1	251547	40.025	1000
1	251852	40.05	1000
1	252123	40.075	1000
1	252277	40.1	1000
1	252466	40.125	1000
1	252660	40.15	1000
1	252850	40.175	1000
1	253045	40.2	1000
1	253233	40.225	1000
1	253350	40.25	1000
1	253538	40.275	1000
1	253732	40.3	1000
1	253921	40.325	1000
1	254226	40.35	1000
1	254499	40.375	1000
1	254688	40.4	1000
1	254997	40.425	1000
1	255302	40.45	1000
1	255573	40.475	1000
1	255762	40.5	1000
1	255956	40.525	1000
1	256109	40.55	1000
1	256298	40.575	1000
4	104	0.025	1008
4	769	0.05	1008
4	772	0.075	1008
4	775	0.1	1008
4	778	0.125	1008
4	781	0.15	1008
4	784	0.175	1008
4	787	0.2	1008
4	790	0.225	1008
4	793	0.25	1008
4	796	0.275	1008
4	799	0.3	1008
4	802	0.325	1008
4	1332	0.35	1008
4	2909	0.375	1008
4	2912	0.4	1008
4	2915	0.425	1008
4	2918	0.45	1008
4	2921	0.475	1008
4	2924	0.5	1008
4	2927	0.525	1008
4	2930	0.55	1008
4	2933	0.575	1008
4	2936	0.6	1008
4	2939	0.625	1008
4	2942	0.65	1008
4	2945	0.675	1008
4	2948	0.7	1008
4	2951	0.725	1008
4	2954	0.75	1008
4	2957	0.775	1008
4	2960	0.8	1008
4	2964	0.825	1008
4	5953	0.85	1008
4	6304	0.875	1008
4	6606	0.9	1008
4	6908	0.925	1008
4	7210	0.95	1008
4	7473	0.975	1008
4	7844	1	1008
4	8075	1.025	1008
4	8336	1.05	1008
4	8608	1.075	1008
4	8941	1.1	1008
4	9243	1.125	1008
4	9544	1.15	1008
4	9775	1.175	1008
4	10146	1.2	1008
4	10415	1.225	1008
4	10607	1.25	1008
4	10723	1.275	1008
4	10913	1.3	1008
4	11029	1.325	1008
4	11219	1.35	1008
4	11335	1.375	1008
4	11525	1.4	1008
4	11641	1.425	1008
4	11831	1.45	1008
4	11947	1.475	1008
4	12137	1.5	1008
4	12253	1.525	1008
4	12443	1.55	1008
4	12559	1.575	1008
4	12749	1.6	1008
4	12865	1.625	1008
4	13055	1.65	1008
4	13171	1.675	1008
4	13361	1.7	1008
4	13477	1.725	1008
4	13667	1.75	1008
4	13783	1.775	1008
4	13973	1.8	1008
4	14089	1.825	1008
4	14279	1.85	1008
4	14395	1.875	1008
4	14585	1.9	1008
4	14701	1.925	1008
4	14891	1.95	1008
4	15007	1.975	1008
4	15229	2	1008
4	15345	2.025	1008
4	15539	2.05	1008
4	15655	2.075	1008
4	15887	2.1	1008
4	16079	2.125	1008
4	16195	2.15	1008
4	16385	2.175	1008
4	16619	2.2	1008
4	16735	2.225	1008
4	16925	2.25	1008
4	17041	2.275	1008
4	17231	2.3	1008
4	17542	2.325	1008
4	17666	2.35	1008
4	17904	2.375	1008
4	18020	2.4	1008
4	18210	2.425	1008
4	18326	2.45	1008
4	18516	2.475	1008
4	18632	2.5	1008
4	18822	2.525	1008
4	19133	2.55	1008
4	19256	2.575	1008
4	19446	2.6	1008
4	19562	2.625	1008
4	19752	2.65	1008
4	19868	2.675	1008
4	20058	2.7	1008
4	20174	2.725	1008
4	20364	2.75	1008
4	20480	2.775	1008
4	20670	2.8	1008
4	20786	2.825	1008
4	21177	2.85	1008
4	21293	2.875	1008
4	21483	2.9	1008
4	21794	2.925	1008
4	21917	2.95	1008
4	22107	2.975	1008
4	22450	3	1008
4	22573	3.025	1008
4	22763	3.05	1008
4	22879	3.075	1008
4	23069	3.1	1008
4	23185	3.125	1008
4	23375	3.15	1008
4	23491	3.175	1008
4	23681	3.2	1008
4	23797	3.225	1008
4	23987	3.25	1008
4	24103	3.275	1008
4	24293	3.3	1008
4	24409	3.325	1008
4	24485	3.35	1008
4	24675	3.375	1008
4	24791	3.4	1008
4	24981	3.425	1008
4	25097	3.45	1008
4	25287	3.475	1008
4	25403	3.5	1008
4	25593	3.525	1008
4	25709	3.55	1008
4	25899	3.575	1008
4	26015	3.6	1008
4	26205	3.625	1008
4	26321	3.65	1008
4	26511	3.675	1008
4	26627	3.7	1008
4	26817	3.725	1008
4	26933	3.75	1008
4	27123	3.775	1008
4	27239	3.8	1008
4	27429	3.825	1008
4	27545	3.85	1008
4	27621	3.875	1008
4	27811	3.9	1008
4	27927	3.925	1008
4	28117	3.95	1008
4	28233	3.975	1008
4	28455	4	1008
4	28571	4.025	1008
4	28761	4.05	1008
4	28877	4.075	1008
4	29067	4.1	1008
4	29183	4.125	1008
4	29373	4.15	1008
4	29489	4.175	1008
4	29565	4.2	1008
4	29755	4.225	1008
4	30066	4.25	1008
4	30189	4.275	1008
4	30379	4.3	1008
4	30495	4.325	1008
4	30685	4.35	1008
4	30801	4.375	1008
4	30991	4.4	1008
4	31302	4.425	1008
4	31425	4.45	1008
4	31501	4.475	1008
4	31691	4.5	1008
4	31807	4.525	1008
4	32000	4.55	1008
4	32116	4.575	1008
4	32306	4.6	1008
4	32617	4.625	1008
4	32740	4.65	1008
4	32930	4.675	1008
4	33046	4.7	1008
4	33236	4.725	1008
4	33352	4.75	1008
4	33542	4.775	1008
4	33659	4.8	1008
4	33850	4.825	1008
4	33967	4.85	1008
4	34157	4.875	1008
4	34273	4.9	1008
4	34463	4.925	1008
4	34579	4.95	1008
4	34769	4.975	1008
4	34917	5	1008
4	35107	5.025	1008
4	35223	5.05	1008
4	35299	5.075	1008
4	35489	5.1	1008
4	35605	5.125	1008
4	35795	5.15	1008
4	35911	5.175	1008
4	36101	5.2	1008
4	36217	5.225	1008
4	36407	5.25	1008
4	36523	5.275	1008
4	36713	5.3	1008
4	36829	5.325	1008
4	37019	5.35	1008
4	37135	5.375	1008
4	37211	5.4	1008
4	37401	5.425	1008
4	37517	5.45	1008
4	37707	5.475	1008
4	37823	5.5	1008
4	38013	5.525	1008
4	38129	5.55	1008
4	38205	5.575	1008
4	38395	5.6	1008
4	38511	5.625	1008
4	38701	5.65	1008
4	38817	5.675	1008
4	39007	5.7	1008
4	39123	5.725	1008
4	39313	5.75	1008
4	39429	5.775	1008
4	39619	5.8	1008
4	39735	5.825	1008
4	39925	5.85	1008
4	40041	5.875	1008
4	40231	5.9	1008
4	40347	5.925	1008
4	40537	5.95	1008
4	40657	5.975	1008
4	40879	6	1008
4	40995	6.025	1008
4	41190	6.05	1008
4	41306	6.075	1008
4	41496	6.1	1008
4	41614	6.125	1008
4	41804	6.15	1008
4	41920	6.175	1008
4	42115	6.2	1008
4	42231	6.225	1008
4	42421	6.25	1008
4	42542	6.275	1008
4	42732	6.3	1008
4	42848	6.325	1008
4	43043	6.35	1008
4	43159	6.375	1008
4	43349	6.4	1008
4	43468	6.425	1008
4	43658	6.45	1008
4	43774	6.475	1008
4	43964	6.5	1008
4	44080	6.525	1008
4	44270	6.55	1008
4	44386	6.575	1008
4	44576	6.6	1008
4	44890	6.625	1008
4	45013	6.65	1008
4	45203	6.675	1008
4	45319	6.7	1008
4	45509	6.725	1008
4	45625	6.75	1008
4	45816	6.775	1008
4	45933	6.8	1008
4	46124	6.825	1008
4	46240	6.85	1008
4	46430	6.875	1008
4	46664	6.9	1008
4	46780	6.925	1008
4	46970	6.95	1008
4	47086	6.975	1008
4	47308	7	1008
4	47424	7.025	1008
4	47614	7.05	1008
4	47730	7.075	1008
4	47806	7.1	1008
4	47996	7.125	1008
4	48112	7.15	1008
4	48302	7.175	1008
4	48418	7.2	1008
4	48608	7.225	1008
4	48724	7.25	1008
4	48914	7.275	1008
4	49030	7.3	1008
4	49220	7.325	1008
4	49336	7.35	1008
4	49526	7.375	1008
4	49642	7.4	1008
4	49832	7.425	1008
4	49948	7.45	1008
4	50138	7.475	1008
4	50254	7.5	1008
4	50444	7.525	1008
4	50560	7.55	1008
4	50750	7.575	1008
4	50866	7.6	1008
4	51056	7.625	1008
4	51172	7.65	1008
4	51362	7.675	1008
4	51478	7.7	1008
4	51668	7.725	1008
4	51784	7.75	1008
4	51974	7.775	1008
4	52090	7.8	1008
4	52280	7.825	1008
4	52396	7.85	1008
4	52586	7.875	1008
4	52702	7.9	1008
4	52892	7.925	1008
4	53008	7.95	1008
4	53198	7.975	1008
4	53346	8	1008
4	53536	8.025	1008
4	53652	8.05	1008
4	53842	8.075	1008
4	53958	8.1	1008
4	54148	8.125	1008
4	54264	8.15	1008
4	54454	8.175	1008
4	54765	8.2	1008
4	54888	8.225	1008
4	55078	8.25	1008
4	55194	8.275	1008
4	55384	8.3	1008
4	55618	8.325	1008
4	55734	8.35	1008
4	55924	8.375	1008
4	56040	8.4	1008
4	56230	8.425	1008
4	56346	8.45	1008
4	56536	8.475	1008
4	56847	8.5	1008
4	56970	8.525	1008
4	57160	8.55	1008
4	57276	8.575	1008
4	57466	8.6	1008
4	57585	8.625	1008
4	57775	8.65	1008
4	57891	8.675	1008
4	58081	8.7	1008
4	58197	8.725	1008
4	58387	8.75	1008
4	58700	8.775	1008
4	58823	8.8	1008
4	59014	8.825	1008
4	59130	8.85	1008
4	59320	8.875	1008
4	59436	8.9	1008
4	59626	8.925	1008
4	59742	8.95	1008
4	59932	8.975	1008
4	60080	9	1008
4	60270	9.025	1008
4	60386	9.05	1008
4	60576	9.075	1008
4	60692	9.1	1008
4	60882	9.125	1008
4	60998	9.15	1008
4	61188	9.175	1008
4	61304	9.2	1008
4	61494	9.225	1008
4	61610	9.25	1008
4	61800	9.275	1008
4	61916	9.3	1008
4	62106	9.325	1008
4	62222	9.35	1008
4	62412	9.375	1008
4	62528	9.4	1008
4	62718	9.425	1008
4	62834	9.45	1008
4	63024	9.475	1008
4	63140	9.5	1008
4	63330	9.525	1008
4	63446	9.55	1008
4	63636	9.575	1008
4	63752	9.6	1008
4	63942	9.625	1008
4	64058	9.65	1008
4	64248	9.675	1008
4	64364	9.7	1008
4	64554	9.725	1008
4	64670	9.75	1008
4	64860	9.775	1008
4	64976	9.8	1008
4	65166	9.825	1008
4	65282	9.85	1008
4	65358	9.875	1008
4	65548	9.9	1008
4	65664	9.925	1008
4	65854	9.95	1008
4	65970	9.975	1008
4	66192	10	1008
4	66308	10.025	1008
4	66498	10.05	1008
4	66614	10.075	1008
4	66690	10.1	1008
4	66880	10.125	1008
4	66996	10.15	1008
4	67186	10.175	1008
4	67302	10.2	1008
4	67492	10.225	1008
4	67608	10.25	1008
4	67798	10.275	1008
4	67914	10.3	1008
4	68104	10.325	1008
4	68220	10.35	1008
4	68410	10.375	1008
4	68526	10.4	1008
4	68716	10.425	1008
4	68832	10.45	1008
4	69022	10.475	1008
4	69141	10.5	1008
4	69331	10.525	1008
4	69447	10.55	1008
4	69637	10.575	1008
4	69948	10.6	1008
4	70071	10.625	1008
4	70261	10.65	1008
4	70377	10.675	1008
4	70567	10.7	1008
4	70683	10.725	1008
4	70875	10.75	1008
4	70994	10.775	1008
4	71184	10.8	1008
4	71301	10.825	1008
4	71491	10.85	1008
4	71802	10.875	1008
4	71925	10.9	1008
4	72115	10.925	1008
4	72231	10.95	1008
4	72421	10.975	1008
4	72569	11	1008
4	72759	11.025	1008
4	72875	11.05	1008
4	73065	11.075	1008
4	73181	11.1	1008
4	73371	11.125	1008
4	73487	11.15	1008
4	73563	11.175	1008
4	73753	11.2	1008
4	74064	11.225	1008
4	74187	11.25	1008
4	74377	11.275	1008
4	74493	11.3	1008
4	74683	11.325	1008
4	74799	11.35	1008
4	74989	11.375	1008
4	75105	11.4	1008
4	75295	11.425	1008
4	75411	11.45	1008
4	75601	11.475	1008
4	75717	11.5	1008
4	75907	11.525	1008
4	76023	11.55	1008
4	76213	11.575	1008
4	76524	11.6	1008
4	76647	11.625	1008
4	76837	11.65	1008
4	76953	11.675	1008
4	77143	11.7	1008
4	77259	11.725	1008
4	77449	11.75	1008
4	77565	11.775	1008
4	77755	11.8	1008
4	77871	11.825	1008
4	78061	11.85	1008
4	78177	11.875	1008
4	78367	11.9	1008
4	78483	11.925	1008
4	78673	11.95	1008
4	78789	11.975	1008
4	79011	12	1008
4	79127	12.025	1008
4	79321	12.05	1008
4	79437	12.075	1008
4	79627	12.1	1008
4	79743	12.125	1008
4	79933	12.15	1008
4	80049	12.175	1008
4	80239	12.2	1008
4	80355	12.225	1008
4	80545	12.25	1008
4	80661	12.275	1008
4	80851	12.3	1008
4	80967	12.325	1008
4	81158	12.35	1008
4	81322	12.375	1008
4	81512	12.4	1008
4	81628	12.425	1008
4	81818	12.45	1008
4	81934	12.475	1008
4	82124	12.5	1008
4	82358	12.525	1008
4	82474	12.55	1008
4	82664	12.575	1008
4	82780	12.6	1008
4	82970	12.625	1008
4	83086	12.65	1008
4	83276	12.675	1008
4	83392	12.7	1008
4	83582	12.725	1008
4	83698	12.75	1008
4	83888	12.775	1008
4	84004	12.8	1008
4	84194	12.825	1008
4	84511	12.85	1008
4	84701	12.875	1008
4	84817	12.9	1008
4	85007	12.925	1008
4	85123	12.95	1008
4	85313	12.975	1008
4	85461	13	1008
4	85537	13.025	1008
4	85727	13.05	1008
4	85843	13.075	1008
4	86033	13.1	1008
4	86149	13.125	1008
4	86225	13.15	1008
4	86415	13.175	1008
4	86531	13.2	1008
4	86721	13.225	1008
4	86837	13.25	1008
4	87027	13.275	1008
4	87143	13.3	1008
4	87333	13.325	1008
4	87449	13.35	1008
4	87639	13.375	1008
4	87755	13.4	1008
4	87945	13.425	1008
4	88061	13.45	1008
4	88251	13.475	1008
4	88367	13.5	1008
4	88557	13.525	1008
4	88673	13.55	1008
4	88863	13.575	1008
4	88982	13.6	1008
4	89172	13.625	1008
4	89288	13.65	1008
4	89478	13.675	1008
4	89594	13.7	1008
4	89784	13.725	1008
4	89900	13.75	1008
4	90090	13.775	1008
4	90206	13.8	1008
4	90396	13.825	1008
4	90512	13.85	1008
4	90702	13.875	1008
4	90818	13.9	1008
4	91008	13.925	1008
4	91124	13.95	1008
4	91314	13.975	1008
4	91462	14	1008
4	91652	14.025	1008
4	91768	14.05	1008
4	91958	14.075	1008
4	92074	14.1	1008
4	92264	14.125	1008
4	92380	14.15	1008
4	92570	14.175	1008
4	92686	14.2	1008
4	92876	14.225	1008
4	93193	14.25	1008
4	93597	14.275	1008
4	93787	14.3	1008
4	93903	14.325	1008
4	94093	14.35	1008
4	94209	14.375	1008
4	94399	14.4	1008
4	94515	14.425	1008
4	94705	14.45	1008
4	94821	14.475	1008
4	95011	14.5	1008
4	95127	14.525	1008
4	95317	14.55	1008
4	95433	14.575	1008
4	95623	14.6	1008
4	95739	14.625	1008
4	95815	14.65	1008
4	96005	14.675	1008
4	96121	14.7	1008
4	96311	14.725	1008
4	96427	14.75	1008
4	96617	14.775	1008
4	96733	14.8	1008
4	96926	14.825	1008
4	97614	14.85	1008
4	98407	14.875	1008
4	98410	14.9	1008
4	98413	14.925	1008
4	98416	14.95	1008
4	98419	14.975	1008
4	98454	15	1008
4	98457	15.025	1008
4	98460	15.05	1008
4	98463	15.075	1008
4	98466	15.1	1008
4	98469	15.125	1008
4	98472	15.15	1008
4	98511	15.175	1008
4	100302	15.2	1008
4	100305	15.225	1008
4	100308	15.25	1008
4	100311	15.275	1008
4	100314	15.3	1008
4	100317	15.325	1008
4	100320	15.35	1008
4	100323	15.375	1008
4	100326	15.4	1008
4	100329	15.425	1008
4	100332	15.45	1008
4	100335	15.475	1008
4	100338	15.5	1008
4	100341	15.525	1008
4	100344	15.55	1008
4	100347	15.575	1008
4	100350	15.6	1008
4	100353	15.625	1008
4	100357	15.65	1008
4	103185	15.675	1008
4	103194	15.7	1008
4	103197	15.725	1008
4	103200	15.75	1008
4	103203	15.775	1008
4	103206	15.8	1008
4	103209	15.825	1008
4	103212	15.85	1008
4	103215	15.875	1008
4	103218	15.9	1008
4	103221	15.925	1008
4	103224	15.95	1008
4	103227	15.975	1008
4	103262	16	1008
4	103265	16.025	1008
4	103268	16.05	1008
4	103271	16.075	1008
4	103274	16.1	1008
4	103277	16.125	1008
4	103280	16.15	1008
4	103283	16.175	1008
4	103286	16.2	1008
4	103289	16.225	1008
4	103292	16.25	1008
4	103295	16.275	1008
4	104611	16.3	1008
4	106177	16.325	1008
4	106180	16.35	1008
4	106183	16.375	1008
4	106186	16.4	1008
4	106189	16.425	1008
4	106192	16.45	1008
4	106195	16.475	1008
4	106198	16.5	1008
4	106201	16.525	1008
4	106204	16.55	1008
4	106207	16.575	1008
4	106210	16.6	1008
4	106213	16.625	1008
4	106216	16.65	1008
4	106219	16.675	1008
4	106222	16.7	1008
4	106225	16.725	1008
4	106228	16.75	1008
4	106231	16.775	1008
4	106234	16.8	1008
4	106237	16.825	1008
4	106240	16.85	1008
4	106243	16.875	1008
4	106246	16.9	1008
4	106249	16.925	1008
4	106252	16.95	1008
4	106255	16.975	1008
4	106290	17	1008
4	106293	17.025	1008
4	106296	17.05	1008
4	106299	17.075	1008
4	106302	17.1	1008
4	106305	17.125	1008
4	106308	17.15	1008
4	106311	17.175	1008
4	106341	17.2	1008
4	106344	17.225	1008
4	106347	17.25	1008
4	106350	17.275	1008
4	106353	17.3	1008
4	106356	17.325	1008
4	106359	17.35	1008
4	106362	17.375	1008
4	106365	17.4	1008
4	106368	17.425	1008
4	106371	17.45	1008
4	106374	17.475	1008
4	106377	17.5	1008
4	106380	17.525	1008
4	106383	17.55	1008
4	106386	17.575	1008
4	106389	17.6	1008
4	106392	17.625	1008
4	106395	17.65	1008
4	106453	17.675	1008
4	106456	17.7	1008
4	106459	17.725	1008
4	106462	17.75	1008
4	106465	17.775	1008
4	106468	17.8	1008
4	106471	17.825	1008
4	106474	17.85	1008
4	106477	17.875	1008
4	106480	17.9	1008
4	106483	17.925	1008
4	106486	17.95	1008
4	106489	17.975	1008
4	106524	18	1008
4	106527	18.025	1008
4	106530	18.05	1008
4	106533	18.075	1008
4	106536	18.1	1008
4	106539	18.125	1008
4	106542	18.15	1008
4	106545	18.175	1008
4	106548	18.2	1008
4	106551	18.225	1008
4	106554	18.25	1008
4	106557	18.275	1008
4	106660	18.3	1008
4	106770	18.325	1008
4	106773	18.35	1008
4	106776	18.375	1008
4	106779	18.4	1008
4	106782	18.425	1008
4	106785	18.45	1008
4	106788	18.475	1008
4	106791	18.5	1008
4	106794	18.525	1008
4	106797	18.55	1008
4	106800	18.575	1008
4	106803	18.6	1008
4	106806	18.625	1008
4	106809	18.65	1008
4	106812	18.675	1008
4	106815	18.7	1008
4	106818	18.725	1008
4	106821	18.75	1008
4	106824	18.775	1008
4	106827	18.8	1008
4	106830	18.825	1008
4	106833	18.85	1008
4	106836	18.875	1008
4	106839	18.9	1008
4	106842	18.925	1008
4	106845	18.95	1008
4	106848	18.975	1008
4	106883	19	1008
4	106886	19.025	1008
4	106889	19.05	1008
4	106892	19.075	1008
4	106895	19.1	1008
4	106898	19.125	1008
4	106901	19.15	1008
4	106904	19.175	1008
4	106907	19.2	1008
4	106910	19.225	1008
4	106914	19.25	1008
4	110034	19.275	1008
4	110575	19.3	1008
4	110840	19.325	1008
4	111183	19.35	1008
4	111411	19.375	1008
4	111751	19.4	1008
4	112082	19.425	1008
4	112424	19.45	1008
4	113139	19.475	1008
4	113367	19.5	1008
4	113593	19.525	1008
4	113888	19.55	1008
4	114356	19.575	1008
4	114786	19.6	1008
4	115377	19.625	1008
4	115693	19.65	1008
4	115850	19.675	1008
4	116080	19.7	1008
4	116686	19.725	1008
4	117138	19.75	1008
4	117641	19.775	1008
4	118388	19.8	1008
4	118394	19.825	1008
4	118397	19.85	1008
4	118400	19.875	1008
4	118403	19.9	1008
4	118406	19.925	1008
4	118409	19.95	1008
4	118412	19.975	1008
4	118447	20	1008
4	118450	20.025	1008
4	118453	20.05	1008
4	118456	20.075	1008
4	118582	20.1	1008
4	120639	20.125	1008
4	120642	20.15	1008
4	120645	20.175	1008
4	120648	20.2	1008
4	120651	20.225	1008
4	120654	20.25	1008
4	120657	20.275	1008
4	120660	20.3	1008
4	120663	20.325	1008
4	120666	20.35	1008
4	120669	20.375	1008
4	120672	20.4	1008
4	120675	20.425	1008
4	120678	20.45	1008
4	120681	20.475	1008
4	120684	20.5	1008
4	120687	20.525	1008
4	120690	20.55	1008
4	120694	20.575	1008
4	123629	20.6	1008
4	123643	20.625	1008
4	123646	20.65	1008
4	123649	20.675	1008
4	123652	20.7	1008
4	123655	20.725	1008
4	123658	20.75	1008
4	123661	20.775	1008
4	123664	20.8	1008
4	123667	20.825	1008
4	123670	20.85	1008
4	123673	20.875	1008
4	123676	20.9	1008
4	123679	20.925	1008
4	123682	20.95	1008
4	123685	20.975	1008
4	123720	21	1008
4	123723	21.025	1008
4	123726	21.05	1008
4	123729	21.075	1008
4	123732	21.1	1008
4	123735	21.125	1008
4	123738	21.15	1008
4	123741	21.175	1008
4	123744	21.2	1008
4	125266	21.225	1008
4	126604	21.25	1008
4	126618	21.275	1008
4	126621	21.3	1008
4	126624	21.325	1008
4	126627	21.35	1008
4	126630	21.375	1008
4	126633	21.4	1008
4	126636	21.425	1008
4	126639	21.45	1008
4	126642	21.475	1008
4	126645	21.5	1008
4	126648	21.525	1008
4	126651	21.55	1008
4	126654	21.575	1008
4	126657	21.6	1008
4	126660	21.625	1008
4	126663	21.65	1008
4	126666	21.675	1008
4	126669	21.7	1008
4	126672	21.725	1008
4	126675	21.75	1008
4	126678	21.775	1008
4	126681	21.8	1008
4	126684	21.825	1008
4	126687	21.85	1008
4	126690	21.875	1008
4	126693	21.9	1008
4	126696	21.925	1008
4	126699	21.95	1008
4	126702	21.975	1008
4	126737	22	1008
4	126740	22.025	1008
4	126743	22.05	1008
4	126746	22.075	1008
4	126749	22.1	1008
4	126783	22.125	1008
4	126786	22.15	1008
4	126789	22.175	1008
4	126792	22.2	1008
4	126795	22.225	1008
4	126798	22.25	1008
4	126801	22.275	1008
4	126804	22.3	1008
4	126807	22.325	1008
4	126810	22.35	1008
4	126813	22.375	1008
4	126816	22.4	1008
4	126819	22.425	1008
4	126822	22.45	1008
4	126825	22.475	1008
4	126828	22.5	1008
4	126831	22.525	1008
4	126834	22.55	1008
4	126837	22.575	1008
4	126898	22.6	1008
4	126901	22.625	1008
4	126904	22.65	1008
4	126907	22.675	1008
4	126910	22.7	1008
4	126913	22.725	1008
4	126916	22.75	1008
4	126919	22.775	1008
4	126922	22.8	1008
4	126925	22.825	1008
4	126928	22.85	1008
4	126931	22.875	1008
4	126934	22.9	1008
4	126937	22.925	1008
4	126940	22.95	1008
4	126943	22.975	1008
4	126978	23	1008
4	126981	23.025	1008
4	126984	23.05	1008
4	126987	23.075	1008
4	126990	23.1	1008
4	126993	23.125	1008
4	126996	23.15	1008
4	126999	23.175	1008
4	127002	23.2	1008
4	127127	23.225	1008
4	127204	23.25	1008
4	127208	23.275	1008
4	127211	23.3	1008
4	127214	23.325	1008
4	127217	23.35	1008
4	127220	23.375	1008
4	127223	23.4	1008
4	127226	23.425	1008
4	127229	23.45	1008
4	127232	23.475	1008
4	127235	23.5	1008
4	127238	23.525	1008
4	127241	23.55	1008
4	127244	23.575	1008
4	127247	23.6	1008
4	127250	23.625	1008
4	127253	23.65	1008
4	127256	23.675	1008
4	127259	23.7	1008
4	127262	23.725	1008
4	127265	23.75	1008
4	127268	23.775	1008
4	127271	23.8	1008
4	127274	23.825	1008
4	127277	23.85	1008
4	127280	23.875	1008
4	127283	23.9	1008
4	127286	23.925	1008
4	127289	23.95	1008
4	127292	23.975	1008
4	127327	24	1008
4	127330	24.025	1008
4	127333	24.05	1008
4	127336	24.075	1008
4	127339	24.1	1008
4	127342	24.125	1008
4	127345	24.15	1008
4	127349	24.175	1008
4	130249	24.2	1008
4	130914	24.225	1008
4	131173	24.25	1008
4	131480	24.275	1008
4	131703	24.3	1008
4	132038	24.325	1008
4	132311	24.35	1008
4	132576	24.375	1008
4	132925	24.4	1008
4	133233	24.425	1008
4	133426	24.45	1008
4	133734	24.475	1008
4	133999	24.5	1008
4	134229	24.525	1008
4	134351	24.55	1008
4	134427	24.575	1008
4	134503	24.6	1008
4	134693	24.625	1008
4	134815	24.65	1008
4	135005	24.675	1008
4	135127	24.7	1008
4	135317	24.725	1008
4	135439	24.75	1008
4	135515	24.775	1008
4	135670	24.8	1008
4	135826	24.825	1008
4	135906	24.85	1008
4	135982	24.875	1008
4	136172	24.9	1008
4	136294	24.925	1008
4	136370	24.95	1008
4	136560	24.975	1008
4	136878	25	1008
4	137069	25.025	1008
4	137355	25.05	1008
4	137546	25.075	1008
4	137668	25.1	1008
4	137744	25.125	1008
4	137934	25.15	1008
4	138056	25.175	1008
4	138246	25.2	1008
4	138368	25.225	1008
4	138558	25.25	1008
4	138680	25.275	1008
4	138870	25.3	1008
4	138992	25.325	1008
4	139147	25.35	1008
4	139338	25.375	1008
4	139460	25.4	1008
4	139615	25.425	1008
4	139806	25.45	1008
4	139928	25.475	1008
4	140004	25.5	1008
4	140194	25.525	1008
4	140316	25.55	1008
4	140506	25.575	1008
4	140628	25.6	1008
4	140704	25.625	1008
4	140780	25.65	1008
4	140856	25.675	1008
4	141046	25.7	1008
4	141168	25.725	1008
4	141358	25.75	1008
4	141480	25.775	1008
4	141670	25.8	1008
4	141792	25.825	1008
4	141982	25.85	1008
4	142265	25.875	1008
4	142421	25.9	1008
4	142612	25.925	1008
4	142898	25.95	1008
4	143089	25.975	1008
4	143243	26	1008
4	143433	26.025	1008
4	143555	26.05	1008
4	143745	26.075	1008
4	143867	26.1	1008
4	143943	26.125	1008
4	144133	26.15	1008
4	144419	26.175	1008
4	144828	26.2	1008
4	144950	26.225	1008
4	145140	26.25	1008
4	145423	26.275	1008
4	145614	26.3	1008
4	145736	26.325	1008
4	145891	26.35	1008
4	146130	26.375	1008
4	146368	26.4	1008
4	146445	26.425	1008
4	146635	26.45	1008
4	146757	26.475	1008
4	146833	26.5	1008
4	147023	26.525	1008
4	147145	26.55	1008
4	147300	26.575	1008
4	147491	26.6	1008
4	147613	26.625	1008
4	147689	26.65	1008
4	147879	26.675	1008
4	148001	26.7	1008
4	148191	26.725	1008
4	148313	26.75	1008
4	148503	26.775	1008
4	148625	26.8	1008
4	148701	26.825	1008
4	148891	26.85	1008
4	149013	26.875	1008
4	149203	26.9	1008
4	149489	26.925	1008
4	149566	26.95	1008
4	149756	26.975	1008
4	149910	27	1008
4	149986	27.025	1008
4	150176	27.05	1008
4	150379	27.075	1008
4	150535	27.1	1008
4	150691	27.125	1008
4	150768	27.15	1008
4	150958	27.175	1008
4	151083	27.2	1008
4	151159	27.225	1008
4	151235	27.25	1008
4	151425	27.275	1008
4	151547	27.3	1008
4	151623	27.325	1008
4	151813	27.35	1008
4	151935	27.375	1008
4	152125	27.4	1008
4	152247	27.425	1008
4	152323	27.45	1008
4	152399	27.475	1008
4	152589	27.5	1008
4	152711	27.525	1008
4	152787	27.55	1008
4	152863	27.575	1008
4	153053	27.6	1008
4	153175	27.625	1008
4	153365	27.65	1008
4	153491	27.675	1008
4	153567	27.7	1008
4	153757	27.725	1008
4	153879	27.75	1008
4	154069	27.775	1008
4	154191	27.8	1008
4	154381	27.825	1008
4	154503	27.85	1008
4	154579	27.875	1008
4	154769	27.9	1008
4	154891	27.925	1008
4	155081	27.95	1008
4	155203	27.975	1008
4	155311	28	1008
4	155387	28.025	1008
4	155577	28.05	1008
4	155699	28.075	1008
4	155889	28.1	1008
4	156172	28.125	1008
4	156363	28.15	1008
4	156488	28.175	1008
4	156678	28.2	1008
4	156800	28.225	1008
4	156990	28.25	1008
4	157112	28.275	1008
4	157188	28.3	1008
4	157378	28.325	1008
4	157500	28.35	1008
4	157690	28.375	1008
4	157812	28.4	1008
4	158002	28.425	1008
4	158124	28.45	1008
4	158314	28.475	1008
4	158436	28.5	1008
4	158626	28.525	1008
4	158748	28.55	1008
4	158824	28.575	1008
4	158900	28.6	1008
4	159090	28.625	1008
4	159212	28.65	1008
4	159288	28.675	1008
4	159364	28.7	1008
4	159440	28.725	1008
4	159630	28.75	1008
4	159752	28.775	1008
4	159828	28.8	1008
4	160018	28.825	1008
4	160140	28.85	1008
4	160216	28.875	1008
4	160406	28.9	1008
4	160528	28.925	1008
4	160718	28.95	1008
4	161004	28.975	1008
4	161113	29	1008
4	161303	29.025	1008
4	161425	29.05	1008
4	161501	29.075	1008
4	161691	29.1	1008
4	161813	29.125	1008
4	161968	29.15	1008
4	162124	29.175	1008
4	162201	29.2	1008
4	162391	29.225	1008
4	162513	29.25	1008
4	162703	29.275	1008
4	162825	29.3	1008
4	162901	29.325	1008
4	163091	29.35	1008
4	163213	29.375	1008
4	163292	29.4	1008
4	163368	29.425	1008
4	163558	29.45	1008
4	163686	29.475	1008
4	163762	29.5	1008
4	163952	29.525	1008
4	164080	29.55	1008
4	164156	29.575	1008
4	164346	29.6	1008
4	164475	29.625	1008
4	164553	29.65	1008
4	164743	29.675	1008
4	164865	29.7	1008
4	164942	29.725	1008
4	165132	29.75	1008
4	165256	29.775	1008
4	165333	29.8	1008
4	165523	29.825	1008
4	165645	29.85	1008
4	165721	29.875	1008
4	165911	29.9	1008
4	166033	29.925	1008
4	166223	29.95	1008
4	166345	29.975	1008
4	166453	30	1008
4	166529	30.025	1008
4	166719	30.05	1008
4	166841	30.075	1008
4	166917	30.1	1008
4	167109	30.125	1008
4	167232	30.15	1008
4	167387	30.175	1008
4	167578	30.2	1008
4	167700	30.225	1008
4	167776	30.25	1008
4	167852	30.275	1008
4	168007	30.3	1008
4	168198	30.325	1008
4	168320	30.35	1008
4	168396	30.375	1008
4	168586	30.4	1008
4	168708	30.425	1008
4	168898	30.45	1008
4	169020	30.475	1008
4	169210	30.5	1008
4	169332	30.525	1008
4	169408	30.55	1008
4	169484	30.575	1008
4	169560	30.6	1008
4	169750	30.625	1008
4	169872	30.65	1008
4	170062	30.675	1008
4	170184	30.7	1008
4	170374	30.725	1008
4	170496	30.75	1008
4	170686	30.775	1008
4	170808	30.8	1008
4	170998	30.825	1008
4	171120	30.85	1008
4	171310	30.875	1008
4	171432	30.9	1008
4	171622	30.925	1008
4	171744	30.95	1008
4	171936	30.975	1008
4	172672	31	1008
4	173312	31.025	1008
4	173315	31.05	1008
4	173318	31.075	1008
4	173321	31.1	1008
4	173324	31.125	1008
4	173327	31.15	1008
4	173330	31.175	1008
4	173333	31.2	1008
4	173336	31.225	1008
4	173339	31.25	1008
4	173349	31.275	1008
4	173352	31.3	1008
4	173441	31.325	1008
4	175419	31.35	1008
4	175422	31.375	1008
4	175425	31.4	1008
4	175428	31.425	1008
4	175431	31.45	1008
4	175434	31.475	1008
4	175437	31.5	1008
4	175440	31.525	1008
4	175443	31.55	1008
4	175446	31.575	1008
4	175449	31.6	1008
4	175452	31.625	1008
4	175455	31.65	1008
4	175458	31.675	1008
4	175461	31.7	1008
4	175464	31.725	1008
4	175467	31.75	1008
4	175470	31.775	1008
4	175474	31.8	1008
4	178167	31.825	1008
4	178179	31.85	1008
4	178182	31.875	1008
4	178185	31.9	1008
4	178188	31.925	1008
4	178191	31.95	1008
4	178194	31.975	1008
4	178229	32	1008
4	178232	32.025	1008
4	178235	32.05	1008
4	178238	32.075	1008
4	178241	32.1	1008
4	178254	32.125	1008
4	178257	32.15	1008
4	178260	32.175	1008
4	178263	32.2	1008
4	178266	32.225	1008
4	178269	32.25	1008
4	178272	32.275	1008
4	178275	32.3	1008
4	178278	32.325	1008
4	178281	32.35	1008
4	178284	32.375	1008
4	178287	32.4	1008
4	178290	32.425	1008
4	179082	32.45	1008
4	181578	32.475	1008
4	182022	32.5	1008
4	182362	32.525	1008
4	182771	32.55	1008
4	183190	32.575	1008
4	183529	32.6	1008
4	183910	32.625	1008
4	184223	32.65	1008
4	184517	32.675	1008
4	184789	32.7	1008
4	185127	32.725	1008
4	185571	32.75	1008
4	186028	32.775	1008
4	186334	32.8	1008
4	186674	32.825	1008
4	187010	32.85	1008
4	187464	32.875	1008
4	187812	32.9	1008
4	188187	32.925	1008
4	188535	32.95	1008
4	188727	32.975	1008
4	189064	33	1008
4	189335	33.025	1008
4	189524	33.05	1008
4	189909	33.075	1008
4	190181	33.1	1008
4	190370	33.125	1008
4	190486	33.15	1008
4	190674	33.175	1008
4	191059	33.2	1008
4	191332	33.225	1008
4	191525	33.25	1008
4	191719	33.275	1008
4	191907	33.3	1008
4	192101	33.325	1008
4	192301	33.35	1008
4	192606	33.375	1008
4	192877	33.4	1008
4	193066	33.425	1008
4	193260	33.45	1008
4	193448	33.475	1008
4	193642	33.5	1008
4	193830	33.525	1008
4	194135	33.55	1008
4	194406	33.575	1008
4	194595	33.6	1008
4	194900	33.625	1008
4	195171	33.65	1008
4	195360	33.675	1008
4	195554	33.7	1008
4	195742	33.725	1008
4	195936	33.75	1008
4	196124	33.775	1008
4	196318	33.8	1008
4	196529	33.825	1008
4	196834	33.85	1008
4	197105	33.875	1008
4	197294	33.9	1008
4	197488	33.925	1008
4	197676	33.95	1008
4	197981	33.975	1008
4	198284	34	1008
4	198473	34.025	1008
4	198667	34.05	1008
4	198855	34.075	1008
4	199049	34.1	1008
4	199237	34.125	1008
4	199542	34.15	1008
4	199813	34.175	1008
4	200002	34.2	1008
4	200196	34.225	1008
4	200384	34.25	1008
4	200578	34.275	1008
4	200766	34.3	1008
4	200960	34.325	1008
4	201148	34.35	1008
4	201342	34.375	1008
4	201530	34.4	1008
4	201835	34.425	1008
4	202169	34.45	1008
4	202537	34.475	1008
4	202842	34.5	1008
[...]
208	90738	13.875915213054	1
208	90738	13.875915213054	0
208	90973	13.917657213054	1
208	90974	13.917657213054	2
208	91044	13.925955213054	1
208	91044	13.925955213054	0
208	91279	13.968057213054	1
208	91280	13.968057213054	2
208	91350	13.976355213054	1
208	91350	13.976355213054	0
208	91617	14.017857213054	1
208	91618	14.017857213054	2
208	91688	14.026155213054	1
208	91688	14.026155213054	0
208	91923	14.067577213054	1
208	91924	14.067577213054	2
208	91994	14.075875213054	1
208	91994	14.075875213054	0
208	92229	14.117457213054	1
208	92230	14.117457213054	2
208	92300	14.125755213054	1
208	92300	14.125755213054	0
208	92535	14.167377213054	1
208	92536	14.167377213054	2
208	92606	14.175675213054	1
208	92606	14.175675213054	0
208	92841	14.216977213054	1
208	92842	14.216977213054	2
208	92879	14.225275213054	1
208	92879	14.225275213054	0
208	93752	14.292537213054	1
208	93753	14.292537213054	2
208	93823	14.300835213054	1
208	93823	14.300835213054	0
208	94058	14.342817213054	1
208	94059	14.342817213054	2
208	94129	14.351115213054	1
208	94129	14.351115213054	0
208	94364	14.392317213054	1
208	94365	14.392317213054	2
208	94435	14.400615213054	1
208	94435	14.400615213054	0
208	94670	14.442697213054	1
208	94671	14.442697213054	2
208	94741	14.450995213054	1
208	94741	14.450995213054	0
208	94976	14.492977213054	1
208	94977	14.492977213054	2
208	95047	14.501275213054	1
208	95047	14.501275213054	0
208	95282	14.543017213054	1
208	95283	14.543017213054	2
208	95353	14.551315213054	1
208	95353	14.551315213054	0
208	95588	14.592677213054	1
208	95589	14.592677213054	2
208	95659	14.600975213054	1
208	95659	14.600975213054	0
208	95970	14.667677213054	1
208	95971	14.667677213054	2
208	96041	14.675975213054	1
208	96041	14.675975213054	0
208	96276	14.717677213054	1
208	96277	14.717677213054	2
208	96347	14.725975213054	1
208	96347	14.725975213054	0
208	96582	14.767437213054	1
208	96583	14.767437213054	2
208	96653	14.775735213054	1
208	96653	14.775735213054	0
208	96858	14.817097213054	1
208	96859	14.817097213054	2
208	96929	14.825395213054	1
208	96929	14.825395213054	0
208	97250	14.834868723442	1
208	97251	14.834868723442	2
208	97283	14.835262723442	1
208	97283	14.835262723442	0
208	99440	15.182069435693	1
208	99441	15.182069435693	2
208	99522	15.182559435693	1
208	99522	15.182559435693	0
208	101943	15.66130287664	1
208	101944	15.66130287664	2
208	102009	15.66179287664	1
208	102009	15.66179287664	0
208	103574	16.294796681646	1
208	103575	16.294796681646	2
208	103607	16.295286681646	1
208	103607	16.295286681646	0
208	107310	19.255145162819	1
208	107311	19.255145162819	2
208	107376	19.255635162819	1
208	107376	19.255635162819	0
208	119424	20.105471008783	1
208	119425	20.105471008783	2
208	119490	20.105961008783	1
208	119490	20.105961008783	0
208	121589	20.585257838509	1
208	121590	20.585257838509	2
208	121626	20.585747838509	1
208	121626	20.585747838509	0
208	125556	21.226125976283	1
208	125557	21.226125976283	2
208	125626	21.226615976283	1
208	125626	21.226615976283	0
208	128506	24.18820129367	1
208	128507	24.18820129367	2
208	128627	24.18869129367	1
208	128627	24.18869129367	0
208	174529	31.332577171152	1
208	174530	31.332577171152	2
208	174595	31.333067171152	1
208	174595	31.333067171152	0
208	176514	31.811490795687	1
208	176515	31.811490795687	2
208	176616	31.811980795687	1
208	176616	31.811980795687	0
208	178671	32.447697308273	1
208	178672	32.447697308273	2
208	178704	32.448187308273	1
208	178704	32.448187308273	0
208	181583	32.47686112422	1
208	181584	32.47686112422	2
208	181616	32.47731912422	1
208	181616	32.47731912422	0
208	181987	32.497409783373	1
208	181988	32.497409783373	2
208	182098	32.505707783373	1
208	182098	32.505707783373	0
208	182442	32.531682536895	1
208	182443	32.531682536895	2
208	182547	32.539980536895	1
208	182547	32.539980536895	0
208	183349	32.591049290417	1
208	183350	32.591049290417	2
208	183422	32.599347290417	1
208	183422	32.599347290417	0
208	184304	32.658975550983	1
208	184305	32.658975550983	2
208	184371	32.667273550983	1
208	184371	32.667273550983	0
208	184914	32.709565058027	1
208	184915	32.709565058027	2
208	184981	32.717863058027	1
208	184981	32.717863058027	0
208	185174	32.726442102807	1
208	185175	32.726442102807	2
208	185279	32.734740102807	1
208	185279	32.734740102807	0
208	185389	32.734900102807	1
208	185390	32.734900102807	2
208	185462	32.743198102807	1
208	185462	32.743198102807	0
208	186266	32.794788941922	1
208	186267	32.794788941922	2
208	186337	32.803086941922	1
208	186337	32.803086941922	0
208	186832	32.838059695444	1
208	186833	32.838059695444	2
208	186904	32.846357695444	1
208	186904	32.846357695444	0
208	186942	32.846617695444	1
208	186943	32.846617695444	2
208	187013	32.854915695444	1
208	187013	32.854915695444	0
208	187892	32.906925202488	1
208	187893	32.906925202488	2
208	187997	32.915223202488	1
208	187997	32.915223202488	0
208	188692	32.967197064119	1
208	188693	32.967197064119	2
208	188763	32.975495064119	1
208	188763	32.975495064119	0
208	189489	33.042057064119	1
208	189490	33.042057064119	2
208	189527	33.050355064119	1
208	189527	33.050355064119	0
208	190335	33.117457064119	1
208	190336	33.117457064119	2
208	190406	33.125755064119	1
208	190406	33.125755064119	0
208	190639	33.166937064119	1
208	190640	33.166937064119	2
208	190677	33.175235064119	1
208	190677	33.175235064119	0
208	191490	33.242477064119	1
208	191491	33.242477064119	2
208	191561	33.250775064119	1
208	191561	33.250775064119	0
208	191872	33.292257064119	1
208	191873	33.292257064119	2
208	191943	33.300555064119	1
208	191943	33.300555064119	0
208	192266	33.342997064119	1
208	192267	33.342997064119	2
208	192337	33.351295064119	1
208	192337	33.351295064119	0
208	193031	33.417897064119	1
208	193032	33.417897064119	2
208	193102	33.426195064119	1
208	193102	33.426195064119	0
208	193413	33.467977064119	1
208	193414	33.467977064119	2
208	193484	33.476275064119	1
208	193484	33.476275064119	0
208	193795	33.518117064119	1
208	193796	33.518117064119	2
208	193866	33.526415064119	1
208	193866	33.526415064119	0
208	194560	33.592517064119	1
208	194561	33.592517064119	2
208	194631	33.600815064119	1
208	194631	33.600815064119	0
208	195325	33.667477064119	1
208	195326	33.667477064119	2
208	195396	33.675775064119	1
208	195396	33.675775064119	0
208	195707	33.717637064119	1
208	195708	33.717637064119	2
208	195778	33.725935064119	1
208	195778	33.725935064119	0
208	196089	33.768137064119	1
208	196090	33.768137064119	2
208	196160	33.776435064119	1
208	196160	33.776435064119	0
208	196486	33.817937064119	1
208	196487	33.817937064119	2
208	196565	33.826235064119	1
208	196565	33.826235064119	0
208	197259	33.892577064119	1
208	197260	33.892577064119	2
208	197330	33.900875064119	1
208	197330	33.900875064119	0
208	197641	33.942317064119	1
208	197642	33.942317064119	2
208	197712	33.950615064119	1
208	197712	33.950615064119	0
208	198438	34.017337064119	1
208	198439	34.017337064119	2
208	198509	34.025635064119	1
208	198509	34.025635064119	0
208	198820	34.067777064119	1
208	198821	34.067777064119	2
208	198891	34.076075064119	1
208	198891	34.076075064119	0
208	199202	34.117397064119	1
208	199203	34.117397064119	2
208	199273	34.125695064119	1
208	199273	34.125695064119	0
208	199967	34.192597064119	1
208	199968	34.192597064119	2
208	200038	34.200895064119	1
208	200038	34.200895064119	0
208	200349	34.242297064119	1
208	200350	34.242297064119	2
208	200420	34.250595064119	1
208	200420	34.250595064119	0
208	200731	34.293077064119	1
208	200732	34.293077064119	2
208	200802	34.301375064119	1
208	200802	34.301375064119	0
208	201113	34.342437064119	1
208	201114	34.342437064119	2
208	201184	34.350735064119	1
208	201184	34.350735064119	0
208	201495	34.392537064119	1
208	201496	34.392537064119	2
208	201566	34.400835064119	1
208	201566	34.400835064119	0
208	202502	34.467377064119	1
208	202503	34.467377064119	2
208	202573	34.475675064119	1
208	202573	34.475675064119	0
208	203267	34.543137064119	1
208	203268	34.543137064119	2
208	203338	34.551435064119	1
208	203338	34.551435064119	0
208	203571	34.592737064119	1
208	203572	34.592737064119	2
208	203642	34.601035064119	1
208	203642	34.601035064119	0
208	203953	34.642557064119	1
208	203954	34.642557064119	2
208	204024	34.650855064119	1
208	204024	34.650855064119	0
208	204257	34.692837064119	1
208	204258	34.692837064119	2
208	204328	34.701135064119	1
208	204328	34.701135064119	0
208	204561	34.742697064119	1
208	204562	34.742697064119	2
208	204632	34.750995064119	1
208	204632	34.750995064119	0
208	204943	34.792697064119	1
208	204944	34.792697064119	2
208	205014	34.800995064119	1
208	205014	34.800995064119	0
208	205708	34.867657064119	1
208	205709	34.867657064119	2
208	205779	34.875955064119	1
208	205779	34.875955064119	0
208	206318	34.917377064119	1
208	206319	34.917377064119	2
208	206390	34.925675064119	1
208	206390	34.925675064119	0
208	206623	34.968217064119	1
208	206624	34.968217064119	2
208	206694	34.976515064119	1
208	206694	34.976515064119	0
208	207420	35.042477064119	1
208	207421	35.042477064119	2
208	207491	35.050775064119	1
208	207491	35.050775064119	0
208	207802	35.092757064119	1
208	207803	35.092757064119	2
208	207873	35.101055064119	1
208	207873	35.101055064119	0
208	208567	35.168197064119	1
208	208568	35.168197064119	2
208	208638	35.176495064119	1
208	208638	35.176495064119	0
208	208949	35.216957064119	1
208	208950	35.216957064119	2
208	209020	35.225255064119	1
208	209020	35.225255064119	0
208	209331	35.267177064119	1
208	209332	35.267177064119	2
208	209402	35.275475064119	1
208	209402	35.275475064119	0
208	210096	35.342657064119	1
208	210097	35.342657064119	2
208	210167	35.350955064119	1
208	210167	35.350955064119	0
208	210861	35.417977064119	1
208	210862	35.417977064119	2
208	210932	35.426275064119	1
208	210932	35.426275064119	0
208	211601	35.491937064119	1
208	211602	35.491937064119	2
208	211697	35.500235064119	1
208	211697	35.500235064119	0
208	212391	35.567757064119	1
208	212392	35.567757064119	2
208	212462	35.576055064119	1
208	212462	35.576055064119	0
208	212773	35.617257064119	1
208	212774	35.617257064119	2
208	212844	35.625555064119	1
208	212844	35.625555064119	0
208	213077	35.667737064119	1
208	213078	35.667737064119	2
208	213148	35.676035064119	1
208	213148	35.676035064119	0
208	213459	35.717877064119	1
208	213460	35.717877064119	2
208	213530	35.726175064119	1
208	213530	35.726175064119	0
208	213841	35.766957064119	1
208	213842	35.766957064119	2
208	213912	35.775255064119	1
208	213912	35.775255064119	0
208	214606	35.842557064119	1
208	214607	35.842557064119	2
208	214677	35.850855064119	1
208	214677	35.850855064119	0
208	215371	35.916837064119	1
208	215372	35.916837064119	2
208	215409	35.925135064119	1
208	215409	35.925135064119	0
208	215911	35.967277064119	1
208	215912	35.967277064119	2
208	215982	35.975575064119	1
208	215982	35.975575064119	0
208	216553	36.017757064119	1
208	216554	36.017757064119	2
208	216625	36.026055064119	1
208	216625	36.026055064119	0
208	217319	36.092717064119	1
208	217320	36.092717064119	2
208	217390	36.101015064119	1
208	217390	36.101015064119	0
208	217701	36.141997064119	1
208	217702	36.141997064119	2
208	217772	36.150295064119	1
208	217772	36.150295064119	0
208	218009	36.192757064119	1
208	218010	36.192757064119	2
208	218081	36.201055064119	1
208	218081	36.201055064119	0
208	218620	36.243057064119	1
208	218621	36.243057064119	2
208	218692	36.251355064119	1
208	218692	36.251355064119	0
208	218925	36.292297064119	1
208	218926	36.292297064119	2
208	218996	36.300595064119	1
208	218996	36.300595064119	0
208	219307	36.342497064119	1
208	219308	36.342497064119	2
208	219378	36.350795064119	1
208	219378	36.350795064119	0
208	219612	36.392917064119	1
208	219613	36.392917064119	2
208	219684	36.401215064119	1
208	219684	36.401215064119	0
208	220383	36.467337064119	1
208	220384	36.467337064119	2
208	220454	36.475635064119	1
208	220454	36.475635064119	0
208	220765	36.516877064119	1
208	220766	36.516877064119	2
208	220803	36.525175064119	1
208	220803	36.525175064119	0
208	221456	36.567577064119	1
208	221457	36.567577064119	2
208	221528	36.575875064119	1
208	221528	36.575875064119	0
208	222222	36.642337064119	1
208	222223	36.642337064119	2
208	222293	36.650635064119	1
208	222293	36.650635064119	0
208	222987	36.717297064119	1
208	222988	36.717297064119	2
208	223058	36.725595064119	1
208	223058	36.725595064119	0
208	223369	36.767857064119	1
208	223370	36.767857064119	2
208	223440	36.776155064119	1
208	223440	36.776155064119	0
208	223673	36.817937064119	1
208	223674	36.817937064119	2
208	223744	36.826235064119	1
208	223744	36.826235064119	0
208	224438	36.892317064119	1
208	224439	36.892317064119	2
208	224509	36.900615064119	1
208	224509	36.900615064119	0
208	225048	36.942177064119	1
208	225049	36.942177064119	2
208	225120	36.950475064119	1
208	225120	36.950475064119	0
208	225353	36.992897064119	1
208	225354	36.992897064119	2
208	225456	37.001195064119	1
208	225456	37.001195064119	0
208	225767	37.042457064119	1
208	225768	37.042457064119	2
208	225838	37.050755064119	1
208	225838	37.050755064119	0
208	226303	37.117397064119	1
208	226304	37.117397064119	2
208	226374	37.125695064119	1
208	226374	37.125695064119	0
208	226685	37.167277064119	1
208	226686	37.167277064119	2
208	226723	37.175575064119	1
208	226723	37.175575064119	0
208	226993	37.192817064119	1
208	226994	37.192817064119	2
208	227065	37.201115064119	1
208	227065	37.201115064119	0
208	227376	37.242117064119	1
208	227377	37.242117064119	2
208	227414	37.250415064119	1
208	227414	37.250415064119	0
208	227836	37.292957064119	1
208	227837	37.292957064119	2
208	227907	37.301255064119	1
208	227907	37.301255064119	0
208	228218	37.342257064119	1
208	228219	37.342257064119	2
208	228289	37.350555064119	1
208	228289	37.350555064119	0
208	228522	37.392717064119	1
208	228523	37.392717064119	2
208	228593	37.401015064119	1
208	228593	37.401015064119	0
208	228904	37.442777064119	1
208	228905	37.442777064119	2
208	228975	37.451075064119	1
208	228975	37.451075064119	0
208	229670	37.517517064119	1
208	229671	37.517517064119	2
208	229741	37.525815064119	1
208	229741	37.525815064119	0
208	229974	37.567497064119	1
208	229975	37.567497064119	2
208	230045	37.575795064119	1
208	230045	37.575795064119	0
208	230899	37.667877064119	1
208	230900	37.667877064119	2
208	230970	37.676175064119	1
208	230970	37.676175064119	0
208	231667	37.742317064119	1
208	231668	37.742317064119	2
208	231738	37.750615064119	1
208	231738	37.750615064119	0
208	232437	37.817417064119	1
208	232438	37.817417064119	2
208	232508	37.825715064119	1
208	232508	37.825715064119	0
208	233207	37.892017064119	1
208	233208	37.892017064119	2
208	233245	37.900315064119	1
208	233245	37.900315064119	0
208	233667	37.943097064119	1
208	233668	37.943097064119	2
208	233738	37.951395064119	1
208	233738	37.951395064119	0
208	234049	37.992697064119	1
208	234050	37.992697064119	2
208	234152	38.000995064119	1
208	234152	38.000995064119	0
208	234463	38.042697064119	1
208	234464	38.042697064119	2
208	234534	38.050995064119	1
208	234534	38.050995064119	0
208	234845	38.092937064119	1
208	234846	38.092937064119	2
208	234916	38.101235064119	1
208	234916	38.101235064119	0
208	235149	38.142517064119	1
208	235150	38.142517064119	2
208	235220	38.150815064119	1
208	235220	38.150815064119	0
208	235915	38.217497064119	1
208	235916	38.217497064119	2
208	235987	38.225795064119	1
208	235987	38.225795064119	0
208	236299	38.268097064119	1
208	236300	38.268097064119	2
208	236370	38.276395064119	1
208	236370	38.276395064119	0
208	236604	38.317537064119	1
208	236605	38.317537064119	2
208	236675	38.325835064119	1
208	236675	38.325835064119	0
208	236987	38.367017064119	1
208	236988	38.367017064119	2
208	237025	38.375315064119	1
208	237025	38.375315064119	0
208	237835	38.443217064119	1
208	237836	38.443217064119	2
208	237906	38.451515064119	1
208	237906	38.451515064119	0
208	238217	38.492777064119	1
208	238218	38.492777064119	2
208	238288	38.501075064119	1
208	238288	38.501075064119	0
208	238957	38.567637064119	1
208	238958	38.567637064119	2
208	239053	38.575935064119	1
208	239053	38.575935064119	0
208	239364	38.617737064119	1
208	239365	38.617737064119	2
208	239435	38.626035064119	1
208	239435	38.626035064119	0
208	239668	38.667277064119	1
208	239669	38.667277064119	2
208	239706	38.675575064119	1
208	239706	38.675575064119	0
208	239976	38.693177064119	1
208	239977	38.693177064119	2
208	240048	38.701475064119	1
208	240048	38.701475064119	0
208	240281	38.742417064119	1
208	240282	38.742417064119	2
208	240352	38.750715064119	1
208	240352	38.750715064119	0
208	241046	38.817757064119	1
208	241047	38.817757064119	2
208	241117	38.826055064119	1
208	241117	38.826055064119	0
208	241428	38.867857064119	1
208	241429	38.867857064119	2
208	241499	38.876155064119	1
208	241499	38.876155064119	0
208	241810	38.918117064119	1
208	241811	38.918117064119	2
208	241881	38.926415064119	1
208	241881	38.926415064119	0
208	242192	38.967457064119	1
208	242193	38.967457064119	2
208	242263	38.975755064119	1
208	242263	38.975755064119	0
208	242606	39.017457064119	1
208	242607	39.017457064119	2
208	242677	39.025755064119	1
208	242677	39.025755064119	0
208	243065	39.067217064119	1
208	243066	39.067217064119	2
208	243136	39.075515064119	1
208	243136	39.075515064119	0
208	243447	39.117217064119	1
208	243448	39.117217064119	2
208	243518	39.125515064119	1
208	243518	39.125515064119	0
208	244212	39.192757064119	1
208	244213	39.192757064119	2
208	244283	39.201055064119	1
208	244283	39.201055064119	0
208	244594	39.242197064119	1
208	244595	39.242197064119	2
208	244665	39.250495064119	1
208	244665	39.250495064119	0
208	244898	39.292237064119	1
208	244899	39.292237064119	2
208	244936	39.300535064119	1
208	244936	39.300535064119	0
208	245358	39.342337064119	1
208	245359	39.342337064119	2
208	245429	39.350635064119	1
208	245429	39.350635064119	0
208	245662	39.392477064119	1
208	245663	39.392477064119	2
208	245733	39.400775064119	1
208	245733	39.400775064119	0
208	246272	39.442917064119	1
208	246273	39.442917064119	2
208	246344	39.451215064119	1
208	246344	39.451215064119	0
208	246731	39.517737064119	1
208	246732	39.517737064119	2
208	246802	39.526035064119	1
208	246802	39.526035064119	0
208	247496	39.592117064119	1
208	247497	39.592117064119	2
208	247534	39.600415064119	1
208	247534	39.600415064119	0
208	248342	39.667417064119	1
208	248343	39.667417064119	2
208	248413	39.675715064119	1
208	248413	39.675715064119	0
208	248724	39.717077064119	1
208	248725	39.717077064119	2
208	248762	39.725375064119	1
208	248762	39.725375064119	0
208	249570	39.792897064119	1
208	249571	39.792897064119	2
208	249641	39.801195064119	1
208	249641	39.801195064119	0
208	249952	39.842677064119	1
208	249953	39.842677064119	2
208	250023	39.850975064119	1
208	250023	39.850975064119	0
208	250717	39.917317064119	1
208	250718	39.917317064119	2
208	250755	39.925615064119	1
208	250755	39.925615064119	0
208	251177	39.967997064119	1
208	251178	39.967997064119	2
208	251248	39.976295064119	1
208	251248	39.976295064119	0
208	251513	40.017317064119	1
208	251514	40.017317064119	2
208	251584	40.025615064119	1
208	251584	40.025615064119	0
208	252432	40.118257064119	1
208	252433	40.118257064119	2
208	252503	40.126555064119	1
208	252503	40.126555064119	0
208	252816	40.168357064119	1
208	252817	40.168357064119	2
208	252888	40.176655064119	1
208	252888	40.176655064119	0
208	253199	40.217997064119	1
208	253200	40.217997064119	2
208	253271	40.226295064119	1
208	253271	40.226295064119	0
208	253504	40.267157064119	1
208	253505	40.267157064119	2
208	253575	40.275455064119	1
208	253575	40.275455064119	0
208	253887	40.317577064119	1
208	253888	40.317577064119	2
208	253958	40.325875064119	1
208	253958	40.325875064119	0
208	254654	40.392197064119	1
208	254655	40.392197064119	2
208	254692	40.400495064119	1
208	254692	40.400495064119	0
208	254962	40.418117064119	1
208	254963	40.418117064119	2
208	255034	40.426415064119	1
208	255034	40.426415064119	0
208	255728	40.492417064119	1
208	255729	40.492417064119	2
208	255799	40.500715064119	1
208	255799	40.500715064119	0
208	256264	40.567697064119	1
208	256265	40.567697064119	2
