version 2
run Host20_40pps-0-20161107-11:46:34-5180
attr configname Host20_40pps
attr datetime 20161107-11:46:34
attr experiment Host20_40pps
attr inifile omnetpp_20.ini
attr iterationvars ""
attr iterationvars2 $repetition=0
attr measurement ""
attr network arb_png.car_host_20
attr processid 5180
attr repetition 0
attr replication #0
attr resultdir results
attr runnumber 0
attr seedset 0
param **.aodv.activeRouteTimeout 2s
param *.configurator.addStaticRoutes false
param *.configurator.config "xml(\"<config><interface hosts='**' address='10.0.0.x' netmask='255.255.255.0'/><autoroute metric='errorRate'/></config>\")"
param *.configurator.optimizeRoutes true
param *.host*.**.bitrate 1Mbps
param *.host*.networkLayer.arpType "\"GlobalARP\""
param *.host*.routingTable.netmaskRoutes "\"\""
param *.host*.wlan[0].mac.maxQueueSize 15
param *.host*.wlan[0].mac.useAck false
param *.host*.wlan[0].macType "\"CsmaCaMac\""
param *.host*.wlan[0].radio.bandwidth 2MHz
param *.host*.wlan[0].radio.carrierFrequency 2GHz
param *.host*.wlan[0].radio.displayCommunicationRange true
param *.host*.wlan[0].radio.displayInterferenceRange true
param *.host*.wlan[0].radio.receiver.energyDetection -85dBm
param *.host*.wlan[0].radio.receiver.ignoreInterference false
param *.host*.wlan[0].radio.receiver.sensitivity -85dBm
param *.host*.wlan[0].radio.receiver.snirThreshold 4dB
param *.host*.wlan[0].radio.transmitter.communicationRange 200m
param *.host*.wlan[0].radio.transmitter.headerBitLength 0b
param *.host*.wlan[0].radio.transmitter.power 1.4mW
param *.host*.wlan[0].radio.transmitter.preambleDuration 10us
param *.host*.wlan[0].radioType "\"APSKScalarRadio\""
param *.host*.wlan[0].typename "\"WirelessNic\""
param *.hostA.numUdpApps 1
param *.hostA.udpApp[0].destAddresses "\"hostD\""
param *.hostA.udpApp[0].destPort 5000
param *.hostA.udpApp[0].messageLength 1000B
param *.hostA.udpApp[0].packetName "\"Data\""
param *.hostA.udpApp[0].sendInterval 25ms
param *.hostA.udpApp[0].typename "\"UDPBasicApp\""
param *.hostD.numUdpApps 1
param *.hostD.udpApp[0].localPort 5000
param *.hostD.udpApp[0].typename "\"UDPSink\""
param *.hostType "\"AODVRouter\""
param *.mediumType "\"APSKScalarRadioMedium\""
param *.radioMedium.backgroundNoise.power -90dBm
param *.radioMedium.mediumLimitCache.carrierFrequency 2GHz
param *.visualizer.dataLinkVisualizer.packetNameFilter "\"AODV*\""
param *.visualizer.mediumVisualizer.signalPropagationUpdateInterval 100ns
param *.visualizer.mobilityVisualizer.displayMovementTrail true
param *.visualizer.networkRouteVisualizer.packetNameFilter "\"UDPData*\""
param *.visualizer.sceneVisualizer.descriptionFigure "\"title\""

vector 310  car_host_20.hostA.wlan[0].radio  radioMode:vector  ETV
attr interpolationmode  sample-hold
attr source  radioModeChanged
attr title  "Radio mode, vector"
vector 324  car_host_20.hostD.wlan[0].radio  radioMode:vector  ETV
attr interpolationmode  sample-hold
attr source  radioModeChanged
attr title  "Radio mode, vector"
vector 330  car_host_20.hostB.wlan[0].radio  radioMode:vector  ETV
attr interpolationmode  sample-hold
attr source  radioModeChanged
attr title  "Radio mode, vector"
vector 336  car_host_20.hostC.wlan[0].radio  radioMode:vector  ETV
attr interpolationmode  sample-hold
attr source  radioModeChanged
attr title  "Radio mode, vector"
vector 342  car_host_20.hostB1.wlan[0].radio  radioMode:vector  ETV
attr interpolationmode  sample-hold
attr source  radioModeChanged
attr title  "Radio mode, vector"
vector 348  car_host_20.hostB2.wlan[0].radio  radioMode:vector  ETV
attr interpolationmode  sample-hold
attr source  radioModeChanged
attr title  "Radio mode, vector"
vector 354  car_host_20.hostB3.wlan[0].radio  radioMode:vector  ETV
attr interpolationmode  sample-hold
attr source  radioModeChanged
attr title  "Radio mode, vector"
vector 360  car_host_20.hostB4.wlan[0].radio  radioMode:vector  ETV
attr interpolationmode  sample-hold
attr source  radioModeChanged
attr title  "Radio mode, vector"
vector 366  car_host_20.hostC1.wlan[0].radio  radioMode:vector  ETV
attr interpolationmode  sample-hold
attr source  radioModeChanged
attr title  "Radio mode, vector"
vector 372  car_host_20.hostC2.wlan[0].radio  radioMode:vector  ETV
attr interpolationmode  sample-hold
attr source  radioModeChanged
attr title  "Radio mode, vector"
vector 378  car_host_20.hostC3.wlan[0].radio  radioMode:vector  ETV
attr interpolationmode  sample-hold
attr source  radioModeChanged
attr title  "Radio mode, vector"
vector 384  car_host_20.hostC4.wlan[0].radio  radioMode:vector  ETV
attr interpolationmode  sample-hold
attr source  radioModeChanged
attr title  "Radio mode, vector"
vector 390  car_host_20.hostC5.wlan[0].radio  radioMode:vector  ETV
attr interpolationmode  sample-hold
attr source  radioModeChanged
attr title  "Radio mode, vector"
vector 396  car_host_20.hostB5.wlan[0].radio  radioMode:vector  ETV
attr interpolationmode  sample-hold
attr source  radioModeChanged
attr title  "Radio mode, vector"
vector 402  car_host_20.hostB6.wlan[0].radio  radioMode:vector  ETV
attr interpolationmode  sample-hold
attr source  radioModeChanged
attr title  "Radio mode, vector"
vector 408  car_host_20.hostB7.wlan[0].radio  radioMode:vector  ETV
attr interpolationmode  sample-hold
attr source  radioModeChanged
attr title  "Radio mode, vector"
vector 414  car_host_20.hostB8.wlan[0].radio  radioMode:vector  ETV
attr interpolationmode  sample-hold
attr source  radioModeChanged
attr title  "Radio mode, vector"
vector 420  car_host_20.hostC6.wlan[0].radio  radioMode:vector  ETV
attr interpolationmode  sample-hold
attr source  radioModeChanged
attr title  "Radio mode, vector"
vector 426  car_host_20.hostC7.wlan[0].radio  radioMode:vector  ETV
attr interpolationmode  sample-hold
attr source  radioModeChanged
attr title  "Radio mode, vector"
vector 432  car_host_20.hostB9.wlan[0].radio  radioMode:vector  ETV
attr interpolationmode  sample-hold
attr source  radioModeChanged
attr title  "Radio mode, vector"
vector 438  car_host_20.hostC8.wlan[0].radio  radioMode:vector  ETV
attr interpolationmode  sample-hold
attr source  radioModeChanged
attr title  "Radio mode, vector"
vector 444  car_host_20.hostC9.wlan[0].radio  radioMode:vector  ETV
attr interpolationmode  sample-hold
attr source  radioModeChanged
attr title  "Radio mode, vector"
vector 311  car_host_20.hostA.wlan[0].radio  receptionState:vector  ETV
attr interpolationmode  sample-hold
attr source  receptionStateChanged
attr title  "Radio reception state, vector"
vector 325  car_host_20.hostD.wlan[0].radio  receptionState:vector  ETV
attr interpolationmode  sample-hold
attr source  receptionStateChanged
attr title  "Radio reception state, vector"
vector 331  car_host_20.hostB.wlan[0].radio  receptionState:vector  ETV
attr interpolationmode  sample-hold
attr source  receptionStateChanged
attr title  "Radio reception state, vector"
vector 337  car_host_20.hostC.wlan[0].radio  receptionState:vector  ETV
attr interpolationmode  sample-hold
attr source  receptionStateChanged
attr title  "Radio reception state, vector"
vector 343  car_host_20.hostB1.wlan[0].radio  receptionState:vector  ETV
attr interpolationmode  sample-hold
attr source  receptionStateChanged
attr title  "Radio reception state, vector"
vector 349  car_host_20.hostB2.wlan[0].radio  receptionState:vector  ETV
attr interpolationmode  sample-hold
attr source  receptionStateChanged
attr title  "Radio reception state, vector"
vector 355  car_host_20.hostB3.wlan[0].radio  receptionState:vector  ETV
attr interpolationmode  sample-hold
attr source  receptionStateChanged
attr title  "Radio reception state, vector"
vector 361  car_host_20.hostB4.wlan[0].radio  receptionState:vector  ETV
attr interpolationmode  sample-hold
attr source  receptionStateChanged
attr title  "Radio reception state, vector"
vector 367  car_host_20.hostC1.wlan[0].radio  receptionState:vector  ETV
attr interpolationmode  sample-hold
attr source  receptionStateChanged
attr title  "Radio reception state, vector"
vector 373  car_host_20.hostC2.wlan[0].radio  receptionState:vector  ETV
attr interpolationmode  sample-hold
attr source  receptionStateChanged
attr title  "Radio reception state, vector"
vector 379  car_host_20.hostC3.wlan[0].radio  receptionState:vector  ETV
attr interpolationmode  sample-hold
attr source  receptionStateChanged
attr title  "Radio reception state, vector"
vector 385  car_host_20.hostC4.wlan[0].radio  receptionState:vector  ETV
attr interpolationmode  sample-hold
attr source  receptionStateChanged
attr title  "Radio reception state, vector"
vector 391  car_host_20.hostC5.wlan[0].radio  receptionState:vector  ETV
attr interpolationmode  sample-hold
attr source  receptionStateChanged
attr title  "Radio reception state, vector"
vector 397  car_host_20.hostB5.wlan[0].radio  receptionState:vector  ETV
attr interpolationmode  sample-hold
attr source  receptionStateChanged
attr title  "Radio reception state, vector"
vector 403  car_host_20.hostB6.wlan[0].radio  receptionState:vector  ETV
attr interpolationmode  sample-hold
attr source  receptionStateChanged
attr title  "Radio reception state, vector"
vector 409  car_host_20.hostB7.wlan[0].radio  receptionState:vector  ETV
attr interpolationmode  sample-hold
attr source  receptionStateChanged
attr title  "Radio reception state, vector"
vector 415  car_host_20.hostB8.wlan[0].radio  receptionState:vector  ETV
attr interpolationmode  sample-hold
attr source  receptionStateChanged
attr title  "Radio reception state, vector"
vector 421  car_host_20.hostC6.wlan[0].radio  receptionState:vector  ETV
attr interpolationmode  sample-hold
attr source  receptionStateChanged
attr title  "Radio reception state, vector"
vector 427  car_host_20.hostC7.wlan[0].radio  receptionState:vector  ETV
attr interpolationmode  sample-hold
attr source  receptionStateChanged
attr title  "Radio reception state, vector"
vector 433  car_host_20.hostB9.wlan[0].radio  receptionState:vector  ETV
attr interpolationmode  sample-hold
attr source  receptionStateChanged
attr title  "Radio reception state, vector"
vector 439  car_host_20.hostC8.wlan[0].radio  receptionState:vector  ETV
attr interpolationmode  sample-hold
attr source  receptionStateChanged
attr title  "Radio reception state, vector"
vector 445  car_host_20.hostC9.wlan[0].radio  receptionState:vector  ETV
attr interpolationmode  sample-hold
attr source  receptionStateChanged
attr title  "Radio reception state, vector"
vector 299  car_host_20.hostA.udpApp[0]  sentPk:vector(packetBytes)  ETV
attr interpolationmode  none
attr source  sentPk
attr title  "packets sent, vector(packetBytes)"
vector 302  car_host_20.hostA.udp  sentPk:vector(packetBytes)  ETV
attr interpolationmode  none
attr source  sentPk
attr title  "packets sent, vector(packetBytes)"
vector 312  car_host_20.hostA.wlan[0].radio  transmissionState:vector  ETV
attr interpolationmode  sample-hold
attr source  transmissionStateChanged
attr title  "Radio transmission state, vector"
vector 434  car_host_20.hostB9.wlan[0].radio  transmissionState:vector  ETV
attr interpolationmode  sample-hold
attr source  transmissionStateChanged
attr title  "Radio transmission state, vector"
vector 344  car_host_20.hostB1.wlan[0].radio  transmissionState:vector  ETV
attr interpolationmode  sample-hold
attr source  transmissionStateChanged
attr title  "Radio transmission state, vector"
vector 362  car_host_20.hostB4.wlan[0].radio  transmissionState:vector  ETV
attr interpolationmode  sample-hold
attr source  transmissionStateChanged
attr title  "Radio transmission state, vector"
vector 416  car_host_20.hostB8.wlan[0].radio  transmissionState:vector  ETV
attr interpolationmode  sample-hold
attr source  transmissionStateChanged
attr title  "Radio transmission state, vector"
vector 446  car_host_20.hostC9.wlan[0].radio  transmissionState:vector  ETV
attr interpolationmode  sample-hold
attr source  transmissionStateChanged
attr title  "Radio transmission state, vector"
vector 422  car_host_20.hostC6.wlan[0].radio  transmissionState:vector  ETV
attr interpolationmode  sample-hold
attr source  transmissionStateChanged
attr title  "Radio transmission state, vector"
vector 326  car_host_20.hostD.wlan[0].radio  transmissionState:vector  ETV
attr interpolationmode  sample-hold
attr source  transmissionStateChanged
attr title  "Radio transmission state, vector"
vector 428  car_host_20.hostC7.wlan[0].radio  transmissionState:vector  ETV
attr interpolationmode  sample-hold
attr source  transmissionStateChanged
attr title  "Radio transmission state, vector"
vector 350  car_host_20.hostB2.wlan[0].radio  transmissionState:vector  ETV
attr interpolationmode  sample-hold
attr source  transmissionStateChanged
attr title  "Radio transmission state, vector"
vector 356  car_host_20.hostB3.wlan[0].radio  transmissionState:vector  ETV
attr interpolationmode  sample-hold
attr source  transmissionStateChanged
attr title  "Radio transmission state, vector"
vector 374  car_host_20.hostC2.wlan[0].radio  transmissionState:vector  ETV
attr interpolationmode  sample-hold
attr source  transmissionStateChanged
attr title  "Radio transmission state, vector"
vector 332  car_host_20.hostB.wlan[0].radio  transmissionState:vector  ETV
attr interpolationmode  sample-hold
attr source  transmissionStateChanged
attr title  "Radio transmission state, vector"
vector 410  car_host_20.hostB7.wlan[0].radio  transmissionState:vector  ETV
attr interpolationmode  sample-hold
attr source  transmissionStateChanged
attr title  "Radio transmission state, vector"
vector 392  car_host_20.hostC5.wlan[0].radio  transmissionState:vector  ETV
attr interpolationmode  sample-hold
attr source  transmissionStateChanged
attr title  "Radio transmission state, vector"
vector 404  car_host_20.hostB6.wlan[0].radio  transmissionState:vector  ETV
attr interpolationmode  sample-hold
attr source  transmissionStateChanged
attr title  "Radio transmission state, vector"
vector 338  car_host_20.hostC.wlan[0].radio  transmissionState:vector  ETV
attr interpolationmode  sample-hold
attr source  transmissionStateChanged
attr title  "Radio transmission state, vector"
vector 380  car_host_20.hostC3.wlan[0].radio  transmissionState:vector  ETV
attr interpolationmode  sample-hold
attr source  transmissionStateChanged
attr title  "Radio transmission state, vector"
vector 398  car_host_20.hostB5.wlan[0].radio  transmissionState:vector  ETV
attr interpolationmode  sample-hold
attr source  transmissionStateChanged
attr title  "Radio transmission state, vector"
vector 368  car_host_20.hostC1.wlan[0].radio  transmissionState:vector  ETV
attr interpolationmode  sample-hold
attr source  transmissionStateChanged
attr title  "Radio transmission state, vector"
vector 440  car_host_20.hostC8.wlan[0].radio  transmissionState:vector  ETV
attr interpolationmode  sample-hold
attr source  transmissionStateChanged
attr title  "Radio transmission state, vector"
vector 386  car_host_20.hostC4.wlan[0].radio  transmissionState:vector  ETV
attr interpolationmode  sample-hold
attr source  transmissionStateChanged
attr title  "Radio transmission state, vector"
vector 317  car_host_20.hostD.udp  rcvdPk:vector(packetBytes)  ETV
attr interpolationmode  none
attr source  rcvdPk
attr title  "packets received, vector(packetBytes)"
vector 318  car_host_20.hostD.udp  passedUpPk:vector(count)  ETV
attr interpolationmode  none
attr title  "packets passed up, vector(count)"
vector 313  car_host_20.hostD.udpApp[0]  rcvdPk:vector(packetBytes)  ETV
attr interpolationmode  none
attr source  rcvdPk
attr title  "packets received, vector(packetBytes)"
vector 314  car_host_20.hostD.udpApp[0]  endToEndDelay:vector  ETV
attr interpolationmode  none
attr source  messageAge(rcvdPk)
attr title  "end-to-end delay, vector"
attr unit  s
vector 315  car_host_20.hostD.udpApp[0]  rcvdPkSeqNo:vector  ETV
attr interpolationmode  none
attr source  appPkSeqNo(rcvdPk)
attr title  "received packet sequence number, vector"
299	72	0.025	1000
299	427	0.05	1000
299	430	0.075	1000
299	433	0.1	1000
299	436	0.125	1000
299	439	0.15	1000
299	442	0.175	1000
299	445	0.2	1000
299	448	0.225	1000
299	451	0.25	1000
299	454	0.275	1000
299	457	0.3	1000
299	460	0.325	1000
299	629	0.35	1000
299	1729	0.375	1000
299	1732	0.4	1000
299	1735	0.425	1000
299	1738	0.45	1000
299	1741	0.475	1000
299	1744	0.5	1000
299	1747	0.525	1000
299	1750	0.55	1000
299	1753	0.575	1000
299	1756	0.6	1000
299	1759	0.625	1000
299	1762	0.65	1000
299	1765	0.675	1000
299	1768	0.7	1000
299	1771	0.725	1000
299	1774	0.75	1000
299	1777	0.775	1000
299	1780	0.8	1000
299	1784	0.825	1000
299	3293	0.85	1000
299	3299	0.875	1000
299	3302	0.9	1000
299	3305	0.925	1000
299	3308	0.95	1000
299	3311	0.975	1000
299	3336	1	1000
299	3339	1.025	1000
299	3342	1.05	1000
299	3345	1.075	1000
299	3348	1.1	1000
299	3351	1.125	1000
299	3354	1.15	1000
299	3357	1.175	1000
299	3360	1.2	1000
299	3363	1.225	1000
299	3366	1.25	1000
299	3369	1.275	1000
299	3372	1.3	1000
299	3375	1.325	1000
299	3378	1.35	1000
299	3381	1.375	1000
299	3384	1.4	1000
299	3387	1.425	1000
299	3390	1.45	1000
299	3841	1.475	1000
299	5297	1.5	1000
299	5454	1.525	1000
299	5626	1.55	1000
299	5783	1.575	1000
299	6003	1.6	1000
299	6168	1.625	1000
299	6283	1.65	1000
299	6449	1.675	1000
299	6666	1.7	1000
299	6863	1.725	1000
299	7053	1.75	1000
299	7275	1.775	1000
299	7440	1.8	1000
299	7661	1.825	1000
299	7829	1.85	1000
299	8035	1.875	1000
299	8149	1.9	1000
299	8263	1.925	1000
299	8377	1.95	1000
299	8516	1.975	1000
299	8627	2	1000
299	8765	2.025	1000
299	8854	2.05	1000
299	8967	2.075	1000
299	9106	2.1	1000
299	9195	2.125	1000
299	9308	2.15	1000
299	9422	2.175	1000
299	9536	2.2	1000
299	9650	2.225	1000
299	9705	2.25	1000
299	9843	2.275	1000
299	9932	2.3	1000
299	10045	2.325	1000
299	10100	2.35	1000
299	10216	2.375	1000
299	10330	2.4	1000
299	10444	2.425	1000
299	10558	2.45	1000
299	10613	2.475	1000
299	10751	2.5	1000
299	10840	2.525	1000
299	10978	2.55	1000
299	11067	2.575	1000
299	11180	2.6	1000
299	11235	2.625	1000
299	11289	2.65	1000
299	11427	2.675	1000
299	11516	2.7	1000
299	11629	2.725	1000
299	11768	2.75	1000
299	11857	2.775	1000
299	11995	2.8	1000
299	12084	2.825	1000
299	12198	2.85	1000
299	12312	2.875	1000
299	12451	2.9	1000
299	12540	2.925	1000
299	12678	2.95	1000
299	12827	2.975	1000
299	12962	3	1000
299	13017	3.025	1000
299	13155	3.05	1000
299	13244	3.075	1000
299	13382	3.1	1000
299	13471	3.125	1000
299	13584	3.15	1000
299	13723	3.175	1000
299	13812	3.2	1000
299	13925	3.225	1000
299	14039	3.25	1000
299	14178	3.275	1000
299	14267	3.3	1000
299	14405	3.325	1000
299	14494	3.35	1000
299	14548	3.375	1000
299	14602	3.4	1000
299	14715	3.425	1000
299	14854	3.45	1000
299	14984	3.475	1000
299	15237	3.5	1000
299	15376	3.525	1000
299	15465	3.55	1000
299	15578	3.575	1000
299	15692	3.6	1000
299	15831	3.625	1000
299	15920	3.65	1000
299	16058	3.675	1000
299	16147	3.7	1000
299	16201	3.725	1000
299	16314	3.75	1000
299	16369	3.775	1000
299	16507	3.8	1000
299	16596	3.825	1000
299	16650	3.85	1000
299	16788	3.875	1000
299	16877	3.9	1000
299	17015	3.925	1000
299	17104	3.95	1000
299	17158	3.975	1000
299	17293	4	1000
299	17432	4.025	1000
299	17581	4.05	1000
299	17720	4.075	1000
299	17809	4.1	1000
299	17922	4.125	1000
299	18036	4.15	1000
299	18091	4.175	1000
299	18145	4.2	1000
299	18199	4.225	1000
299	18337	4.25	1000
299	18426	4.275	1000
299	18564	4.3	1000
299	18653	4.325	1000
299	18791	4.35	1000
299	18880	4.375	1000
299	18934	4.4	1000
299	19047	4.425	1000
299	19186	4.45	1000
299	19275	4.475	1000
299	19388	4.5	1000
299	19502	4.525	1000
299	19641	4.55	1000
299	19730	4.575	1000
299	19784	4.6	1000
299	19897	4.625	1000
299	20011	4.65	1000
299	20150	4.675	1000
299	20239	4.7	1000
299	20293	4.725	1000
299	20347	4.75	1000
299	20401	4.775	1000
299	20514	4.8	1000
299	20569	4.825	1000
299	20707	4.85	1000
299	20796	4.875	1000
299	20909	4.9	1000
299	20964	4.925	1000
299	21077	4.95	1000
299	21192	4.975	1000
299	21328	5	1000
299	21467	5.025	1000
299	21556	5.05	1000
299	21694	5.075	1000
299	21783	5.1	1000
299	21921	5.125	1000
299	22010	5.15	1000
299	22148	5.175	1000
299	22237	5.2	1000
299	22375	5.225	1000
299	22464	5.25	1000
299	22602	5.275	1000
299	22691	5.3	1000
299	22745	5.325	1000
299	22883	5.35	1000
299	22972	5.375	1000
299	23085	5.4	1000
299	23224	5.425	1000
299	23315	5.45	1000
299	23370	5.475	1000
299	23509	5.5	1000
299	23598	5.525	1000
299	23736	5.55	1000
299	23825	5.575	1000
299	23879	5.6	1000
299	24017	5.625	1000
299	24106	5.65	1000
299	24219	5.675	1000
299	24274	5.7	1000
299	24387	5.725	1000
299	24501	5.75	1000
299	24556	5.775	1000
299	24694	5.8	1000
299	24783	5.825	1000
299	24921	5.85	1000
299	25010	5.875	1000
299	25148	5.9	1000
299	25237	5.925	1000
299	25350	5.95	1000
299	25489	5.975	1000
299	25600	6	1000
299	25654	6.025	1000
299	25767	6.05	1000
299	25881	6.075	1000
299	25936	6.1	1000
299	26074	6.125	1000
299	26163	6.15	1000
299	26217	6.175	1000
299	26355	6.2	1000
299	26444	6.225	1000
299	26498	6.25	1000
299	26611	6.275	1000
299	26666	6.3	1000
299	26720	6.325	1000
299	26858	6.35	1000
299	26947	6.375	1000
299	27085	6.4	1000
299	27174	6.425	1000
299	27287	6.45	1000
299	27426	6.475	1000
299	27515	6.5	1000
299	27569	6.525	1000
299	27682	6.55	1000
299	27737	6.575	1000
299	27875	6.6	1000
299	27964	6.625	1000
299	28018	6.65	1000
299	28131	6.675	1000
299	28186	6.7	1000
299	28324	6.725	1000
299	28413	6.75	1000
299	28530	6.775	1000
299	28644	6.8	1000
299	28699	6.825	1000
299	28821	6.85	1000
299	28960	6.875	1000
299	29049	6.9	1000
299	29190	6.925	1000
299	29279	6.95	1000
299	29333	6.975	1000
299	29412	7	1000
299	29525	7.025	1000
299	29639	7.05	1000
299	29753	7.075	1000
299	29892	7.1	1000
299	29981	7.125	1000
299	30035	7.15	1000
299	30089	7.175	1000
299	30143	7.2	1000
299	30256	7.225	1000
299	30395	7.25	1000
299	30484	7.275	1000
299	30622	7.3	1000
299	30711	7.325	1000
299	30765	7.35	1000
299	30903	7.375	1000
299	30992	7.4	1000
299	31048	7.425	1000
299	31162	7.45	1000
299	31276	7.475	1000
299	31390	7.5	1000
299	31445	7.525	1000
299	31558	7.55	1000
299	31613	7.575	1000
299	31726	7.6	1000
299	31781	7.625	1000
299	31894	7.65	1000
299	32008	7.675	1000
299	32147	7.7	1000
299	32236	7.725	1000
299	32374	7.75	1000
299	32463	7.775	1000
299	32601	7.8	1000
299	32690	7.825	1000
299	32828	7.85	1000
299	32917	7.875	1000
299	33055	7.9	1000
299	33144	7.925	1000
299	33257	7.95	1000
299	33396	7.975	1000
299	33507	8	1000
299	33620	8.025	1000
299	33759	8.05	1000
299	33848	8.075	1000
299	33986	8.1	1000
299	34075	8.125	1000
299	34213	8.15	1000
299	34302	8.175	1000
299	34415	8.2	1000
299	34554	8.225	1000
299	34643	8.25	1000
299	34697	8.275	1000
299	34835	8.3	1000
299	34924	8.325	1000
299	34978	8.35	1000
299	35091	8.375	1000
299	35205	8.4	1000
299	35344	8.425	1000
299	35433	8.45	1000
299	35487	8.475	1000
299	35600	8.5	1000
299	35714	8.525	1000
299	35853	8.55	1000
299	35942	8.575	1000
299	36055	8.6	1000
299	36110	8.625	1000
299	36223	8.65	1000
299	36362	8.675	1000
299	36451	8.7	1000
299	36564	8.725	1000
299	36703	8.75	1000
299	36792	8.775	1000
299	36846	8.8	1000
299	36959	8.825	1000
299	37073	8.85	1000
299	37128	8.875	1000
299	37182	8.9	1000
299	37295	8.925	1000
299	37350	8.95	1000
299	37488	8.975	1000
299	37599	9	1000
299	37737	9.025	1000
299	37826	9.05	1000
299	37939	9.075	1000
299	38053	9.1	1000
299	38192	9.125	1000
299	38281	9.15	1000
299	38419	9.175	1000
299	38508	9.2	1000
299	38621	9.225	1000
299	38760	9.25	1000
299	38849	9.275	1000
299	38987	9.3	1000
299	39076	9.325	1000
299	39189	9.35	1000
299	39246	9.375	1000
299	39384	9.4	1000
299	39474	9.425	1000
299	39587	9.45	1000
299	39701	9.475	1000
299	39815	9.5	1000
299	39954	9.525	1000
299	40043	9.55	1000
299	40181	9.575	1000
299	40330	9.6	1000
299	40444	9.625	1000
299	40583	9.65	1000
299	40672	9.675	1000
299	40726	9.7	1000
299	40864	9.725	1000
299	40953	9.75	1000
299	41066	9.775	1000
299	41121	9.8	1000
299	41234	9.825	1000
299	41289	9.85	1000
299	41402	9.875	1000
299	41457	9.9	1000
299	41511	9.925	1000
299	41624	9.95	1000
299	41679	9.975	1000
299	41839	10	1000
299	41928	10.025	1000
299	42041	10.05	1000
299	42096	10.075	1000
299	42234	10.1	1000
299	42323	10.125	1000
299	42461	10.15	1000
299	42550	10.175	1000
299	42604	10.2	1000
299	42717	10.225	1000
299	42831	10.25	1000
299	42945	10.275	1000
299	43000	10.3	1000
299	43054	10.325	1000
299	43108	10.35	1000
299	43246	10.375	1000
299	43335	10.4	1000
299	43473	10.425	1000
299	43562	10.45	1000
299	43616	10.475	1000
299	43729	10.5	1000
299	43868	10.525	1000
299	43957	10.55	1000
299	44095	10.575	1000
299	44184	10.6	1000
299	44297	10.625	1000
299	44352	10.65	1000
299	44465	10.675	1000
299	44520	10.7	1000
299	44574	10.725	1000
299	44687	10.75	1000
299	44801	10.775	1000
299	44856	10.8	1000
299	44910	10.825	1000
299	45048	10.85	1000
299	45137	10.875	1000
299	45191	10.9	1000
299	45304	10.925	1000
299	45443	10.95	1000
299	45532	10.975	1000
299	45608	11	1000
299	45662	11.025	1000
299	45800	11.05	1000
299	45889	11.075	1000
299	46002	11.1	1000
299	46141	11.125	1000
299	46530	11.15	1000
299	46884	11.175	1000
299	46887	11.2	1000
299	46890	11.225	1000
299	46893	11.25	1000
299	46896	11.275	1000
299	46899	11.3	1000
299	46902	11.325	1000
299	46905	11.35	1000
299	46908	11.375	1000
299	46911	11.4	1000
299	46914	11.425	1000
299	46917	11.45	1000
299	46980	11.475	1000
299	48139	11.5	1000
299	48142	11.525	1000
299	48145	11.55	1000
299	48148	11.575	1000
299	48151	11.6	1000
299	48154	11.625	1000
299	48157	11.65	1000
299	48160	11.675	1000
299	48163	11.7	1000
299	48166	11.725	1000
299	48169	11.75	1000
299	48172	11.775	1000
299	48175	11.8	1000
299	48178	11.825	1000
299	48181	11.85	1000
299	48184	11.875	1000
299	48187	11.9	1000
299	48190	11.925	1000
299	48194	11.95	1000
299	49885	11.975	1000
299	50155	12	1000
299	50348	12.025	1000
299	50590	12.05	1000
299	50782	12.075	1000
299	50998	12.1	1000
299	51215	12.125	1000
299	51432	12.15	1000
299	51596	12.175	1000
299	51758	12.2	1000
299	51944	12.225	1000
299	52160	12.25	1000
299	52434	12.275	1000
299	52654	12.3	1000
299	52770	12.325	1000
299	52903	12.35	1000
299	53055	12.375	1000
299	53163	12.4	1000
299	53297	12.425	1000
299	53386	12.45	1000
299	53519	12.475	1000
299	53608	12.5	1000
299	53716	12.525	1000
299	53850	12.55	1000
299	53939	12.575	1000
299	54072	12.6	1000
299	54161	12.625	1000
299	54294	12.65	1000
299	54383	12.675	1000
299	54516	12.7	1000
299	54605	12.725	1000
299	54738	12.75	1000
299	54827	12.775	1000
299	54960	12.8	1000
299	55049	12.825	1000
299	55183	12.85	1000
299	55272	12.875	1000
299	55405	12.9	1000
299	55494	12.925	1000
299	55602	12.95	1000
299	55736	12.975	1000
299	55910	13	1000
299	56081	13.025	1000
299	56195	13.05	1000
299	56328	13.075	1000
299	56417	13.1	1000
299	56551	13.125	1000
299	56640	13.15	1000
299	56776	13.175	1000
299	56865	13.2	1000
299	56998	13.225	1000
299	57087	13.25	1000
299	57141	13.275	1000
299	57274	13.3	1000
299	57363	13.325	1000
299	57496	13.35	1000
299	57645	13.375	1000
299	57778	13.4	1000
299	57867	13.425	1000
299	58000	13.45	1000
299	58094	13.475	1000
299	58259	13.5	1000
299	58348	13.525	1000
299	58481	13.55	1000
299	58633	13.575	1000
299	58766	13.6	1000
299	58855	13.625	1000
299	58988	13.65	1000
299	59077	13.675	1000
299	59185	13.7	1000
299	59319	13.725	1000
299	59408	13.75	1000
299	59541	13.775	1000
299	59630	13.8	1000
299	59738	13.825	1000
299	59872	13.85	1000
299	59961	13.875	1000
299	60094	13.9	1000
299	60183	13.925	1000
299	60316	13.95	1000
299	60555	13.975	1000
299	60710	14	1000
299	60799	14.025	1000
299	60932	14.05	1000
299	61021	14.075	1000
299	61154	14.1	1000
299	61243	14.125	1000
299	61376	14.15	1000
299	61528	14.175	1000
299	61636	14.2	1000
299	61770	14.225	1000
299	61859	14.25	1000
299	61992	14.275	1000
299	62144	14.3	1000
299	62277	14.325	1000
299	62366	14.35	1000
299	62499	14.375	1000
299	62588	14.4	1000
299	62721	14.425	1000
299	62870	14.45	1000
299	62978	14.475	1000
299	63112	14.5	1000
299	63201	14.525	1000
299	63334	14.55	1000
299	63423	14.575	1000
299	63556	14.6	1000
299	63708	14.625	1000
299	63841	14.65	1000
299	63930	14.675	1000
299	64063	14.7	1000
299	64215	14.725	1000
299	64348	14.75	1000
299	64437	14.775	1000
299	64570	14.8	1000
299	64659	14.825	1000
299	64792	14.85	1000
299	64881	14.875	1000
299	65014	14.9	1000
299	65103	14.925	1000
299	65236	14.95	1000
299	65386	14.975	1000
299	65541	15	1000
299	65630	15.025	1000
299	65763	15.05	1000
299	65852	15.075	1000
299	65960	15.1	1000
299	66069	15.125	1000
299	66203	15.15	1000
299	66352	15.175	1000
299	66485	15.2	1000
299	66574	15.225	1000
299	66707	15.25	1000
299	66796	15.275	1000
299	66929	15.3	1000
299	67018	15.325	1000
299	67151	15.35	1000
299	67240	15.375	1000
299	67373	15.4	1000
299	67462	15.425	1000
299	67570	15.45	1000
299	67704	15.475	1000
299	67793	15.5	1000
299	67926	15.525	1000
299	68015	15.55	1000
299	68149	15.575	1000
299	68238	15.6	1000
299	68371	15.625	1000
299	68520	15.65	1000
299	68653	15.675	1000
299	68742	15.7	1000
299	68850	15.725	1000
299	68984	15.75	1000
299	69133	15.775	1000
299	69266	15.8	1000
299	69355	15.825	1000
299	69488	15.85	1000
299	69577	15.875	1000
299	69710	15.9	1000
299	69799	15.925	1000
299	69935	15.95	1000
299	70024	15.975	1000
299	70179	16	1000
299	70268	16.025	1000
299	70401	16.05	1000
299	70490	16.075	1000
299	70623	16.1	1000
299	70712	16.125	1000
299	70845	16.15	1000
299	70997	16.175	1000
299	71130	16.2	1000
299	71219	16.225	1000
299	71352	16.25	1000
299	71441	16.275	1000
299	71574	16.3	1000
299	71663	16.325	1000
299	71796	16.35	1000
299	71885	16.375	1000
299	72018	16.4	1000
299	72107	16.425	1000
299	72240	16.45	1000
299	72329	16.475	1000
299	72462	16.5	1000
299	72614	16.525	1000
299	72722	16.55	1000
299	72856	16.575	1000
299	73005	16.6	1000
299	73138	16.625	1000
299	73227	16.65	1000
299	73360	16.675	1000
299	73449	16.7	1000
299	73582	16.725	1000
299	73671	16.75	1000
299	73804	16.775	1000
299	73893	16.8	1000
299	74001	16.825	1000
299	74135	16.85	1000
299	74224	16.875	1000
299	74357	16.9	1000
299	74446	16.925	1000
299	74579	16.95	1000
299	74668	16.975	1000
299	74823	17	1000
299	74912	17.025	1000
299	74966	17.05	1000
299	75099	17.075	1000
299	75251	17.1	1000
299	75384	17.125	1000
299	75473	17.15	1000
299	75607	17.175	1000
299	75696	17.2	1000
299	75804	17.225	1000
299	75942	17.25	1000
299	76031	17.275	1000
299	76164	17.3	1000
299	76256	17.325	1000
299	76389	17.35	1000
299	76478	17.375	1000
299	76619	17.4	1000
299	76708	17.425	1000
299	76841	17.45	1000
299	76930	17.475	1000
299	77063	17.5	1000
299	77152	17.525	1000
299	77285	17.55	1000
299	77374	17.575	1000
299	77482	17.6	1000
299	77616	17.625	1000
299	77705	17.65	1000
299	77838	17.675	1000
299	77927	17.7	1000
299	78035	17.725	1000
299	78169	17.75	1000
299	78258	17.775	1000
299	78391	17.8	1000
299	78480	17.825	1000
299	78613	17.85	1000
299	78702	17.875	1000
299	78835	17.9	1000
299	78925	17.925	1000
299	79060	17.95	1000
299	79149	17.975	1000
299	79304	18	1000
299	79453	18.025	1000
299	79561	18.05	1000
299	79695	18.075	1000
299	79784	18.1	1000
299	79917	18.125	1000
299	80069	18.15	1000
299	80202	18.175	1000
299	80291	18.2	1000
299	80424	18.225	1000
299	80513	18.25	1000
299	80621	18.275	1000
299	80730	18.3	1000
299	80864	18.325	1000
299	80953	18.35	1000
299	81086	18.375	1000
299	81175	18.4	1000
299	81308	18.425	1000
299	81454	18.45	1000
299	81588	18.475	1000
299	81677	18.5	1000
299	81810	18.525	1000
299	81959	18.55	1000
299	82067	18.575	1000
299	82201	18.6	1000
299	82290	18.625	1000
299	82423	18.65	1000
299	82512	18.675	1000
299	82645	18.7	1000
299	82734	18.725	1000
299	82867	18.75	1000
299	82956	18.775	1000
299	83089	18.8	1000
299	83178	18.825	1000
299	83311	18.85	1000
299	83460	18.875	1000
299	83593	18.9	1000
299	83682	18.925	1000
299	83790	18.95	1000
299	83924	18.975	1000
299	84035	19	1000
299	84143	19.025	1000
299	84252	19.05	1000
299	84386	19.075	1000
299	84476	19.1	1000
299	84609	19.125	1000
299	84698	19.15	1000
299	84831	19.175	1000
299	84920	19.2	1000
299	85028	19.225	1000
299	85162	19.25	1000
299	85251	19.275	1000
299	85384	19.3	1000
299	85473	19.325	1000
299	85606	19.35	1000
299	85695	19.375	1000
299	85828	19.4	1000
299	85917	19.425	1000
299	86025	19.45	1000
299	86159	19.475	1000
299	86248	19.5	1000
299	86356	19.525	1000
299	86490	19.55	1000
299	86579	19.575	1000
299	86712	19.6	1000
299	86801	19.625	1000
299	86934	19.65	1000
299	87023	19.675	1000
299	87156	19.7	1000
299	87245	19.725	1000
299	87378	19.75	1000
299	87467	19.775	1000
299	87575	19.8	1000
299	87709	19.825	1000
299	87798	19.85	1000
299	87931	19.875	1000
299	88022	19.9	1000
299	88155	19.925	1000
299	88245	19.95	1000
299	88378	19.975	1000
299	88489	20	1000
299	88622	20.025	1000
299	88711	20.05	1000
299	88844	20.075	1000
299	88993	20.1	1000
299	89126	20.125	1000
299	89215	20.15	1000
299	89348	20.175	1000
299	89437	20.2	1000
299	89545	20.225	1000
299	89679	20.25	1000
299	89768	20.275	1000
299	89901	20.3	1000
299	89990	20.325	1000
299	90123	20.35	1000
299	90212	20.375	1000
299	90345	20.4	1000
299	90434	20.425	1000
299	90567	20.45	1000
299	90656	20.475	1000
299	90789	20.5	1000
299	90878	20.525	1000
299	90986	20.55	1000
299	91120	20.575	1000
299	91209	20.6	1000
299	91342	20.625	1000
299	91431	20.65	1000
299	91539	20.675	1000
299	91673	20.7	1000
299	91762	20.725	1000
299	91895	20.75	1000
299	92044	20.775	1000
299	92177	20.8	1000
299	92266	20.825	1000
299	92399	20.85	1000
299	92489	20.875	1000
299	92622	20.9	1000
299	92711	20.925	1000
299	92819	20.95	1000
299	92953	20.975	1000
299	93064	21	1000
299	93172	21.025	1000
299	93306	21.05	1000
299	93395	21.075	1000
299	93528	21.1	1000
299	93617	21.125	1000
299	93753	21.15	1000
299	93842	21.175	1000
299	93975	21.2	1000
299	94064	21.225	1000
299	94197	21.25	1000
299	94286	21.275	1000
299	94419	21.3	1000
299	94508	21.325	1000
299	94641	21.35	1000
299	94730	21.375	1000
299	94838	21.4	1000
299	94972	21.425	1000
299	95061	21.45	1000
299	95194	21.475	1000
299	95283	21.5	1000
299	95416	21.525	1000
299	95565	21.55	1000
299	95698	21.575	1000
299	95787	21.6	1000
299	95920	21.625	1000
299	96009	21.65	1000
299	96142	21.675	1000
299	96231	21.7	1000
299	96364	21.725	1000
299	96453	21.75	1000
299	96586	21.775	1000
299	96675	21.8	1000
299	96808	21.825	1000
299	96897	21.85	1000
299	97032	21.875	1000
299	97121	21.9	1000
299	97230	21.925	1000
299	97364	21.95	1000
299	97453	21.975	1000
299	97529	22	1000
299	97662	22.025	1000
299	97751	22.05	1000
299	97884	22.075	1000
299	97973	22.1	1000
299	98106	22.125	1000
299	98195	22.15	1000
299	98328	22.175	1000
299	98417	22.2	1000
299	98525	22.225	1000
299	98659	22.25	1000
299	98748	22.275	1000
299	98856	22.3	1000
299	98990	22.325	1000
299	99139	22.35	1000
299	99272	22.375	1000
299	99421	22.4	1000
299	99554	22.425	1000
299	99643	22.45	1000
299	99776	22.475	1000
299	99865	22.5	1000
299	99998	22.525	1000
299	100087	22.55	1000
299	100195	22.575	1000
299	100329	22.6	1000
299	100481	22.625	1000
299	100614	22.65	1000
299	100703	22.675	1000
299	100836	22.7	1000
299	100925	22.725	1000
299	101058	22.75	1000
299	101148	22.775	1000
299	101281	22.8	1000
299	101433	22.825	1000
299	101566	22.85	1000
299	101655	22.875	1000
299	101788	22.9	1000
299	101877	22.925	1000
299	102010	22.95	1000
299	102099	22.975	1000
299	102254	23	1000
299	102343	23.025	1000
299	102476	23.05	1000
299	102565	23.075	1000
299	102673	23.1	1000
299	102783	23.125	1000
299	102917	23.15	1000
299	103009	23.175	1000
299	103117	23.2	1000
299	103251	23.225	1000
299	103340	23.25	1000
299	103473	23.275	1000
299	103562	23.3	1000
299	103695	23.325	1000
299	103784	23.35	1000
299	103917	23.375	1000
299	104069	23.4	1000
299	104177	23.425	1000
299	104311	23.45	1000
299	104400	23.475	1000
299	104551	23.5	1000
299	104640	23.525	1000
299	104773	23.55	1000
299	104862	23.575	1000
299	104970	23.6	1000
299	105104	23.625	1000
299	105193	23.65	1000
299	105301	23.675	1000
299	105435	23.7	1000
299	105524	23.725	1000
299	105657	23.75	1000
299	105746	23.775	1000
299	105879	23.8	1000
299	105969	23.825	1000
299	106103	23.85	1000
299	106192	23.875	1000
299	106325	23.9	1000
299	106414	23.925	1000
299	106547	23.95	1000
299	106785	23.975	1000
299	106940	24	1000
299	107029	24.025	1000
299	107137	24.05	1000
299	107271	24.075	1000
299	107360	24.1	1000
299	107414	24.125	1000
299	107547	24.15	1000
299	107636	24.175	1000
299	107769	24.2	1000
299	107858	24.225	1000
299	107991	24.25	1000
299	108080	24.275	1000
299	108134	24.3	1000
299	108267	24.325	1000
299	108356	24.35	1000
299	108489	24.375	1000
299	108578	24.4	1000
299	108711	24.425	1000
299	108800	24.45	1000
299	108933	24.475	1000
299	109085	24.5	1000
299	109218	24.525	1000
299	109307	24.55	1000
299	109440	24.575	1000
299	109529	24.6	1000
299	109662	24.625	1000
299	109751	24.65	1000
299	109884	24.675	1000
299	109973	24.7	1000
299	110106	24.725	1000
299	110195	24.75	1000
299	110328	24.775	1000
299	110417	24.8	1000
299	110550	24.825	1000
299	110699	24.85	1000
299	110807	24.875	1000
299	110941	24.9	1000
299	111030	24.925	1000
299	111163	24.95	1000
299	111252	24.975	1000
299	111407	25	1000
299	111496	25.025	1000
299	111604	25.05	1000
299	111738	25.075	1000
299	111827	25.1	1000
299	111960	25.125	1000
299	112049	25.15	1000
299	112182	25.175	1000
299	112271	25.2	1000
299	112404	25.225	1000
299	112553	25.25	1000
299	112661	25.275	1000
299	112770	25.3	1000
299	112904	25.325	1000
299	112993	25.35	1000
299	113126	25.375	1000
299	113216	25.4	1000
299	113349	25.425	1000
299	113438	25.45	1000
299	113571	25.475	1000
299	113660	25.5	1000
299	113793	25.525	1000
299	113882	25.55	1000
299	114015	25.575	1000
299	114104	25.6	1000
299	114212	25.625	1000
299	114346	25.65	1000
299	114498	25.675	1000
299	114631	25.7	1000
299	114720	25.725	1000
299	114853	25.75	1000
299	114942	25.775	1000
299	115075	25.8	1000
299	115164	25.825	1000
299	115297	25.85	1000
299	115449	25.875	1000
299	115582	25.9	1000
299	115671	25.925	1000
299	115807	25.95	1000
299	115896	25.975	1000
299	116051	26	1000
299	116200	26.025	1000
299	116333	26.05	1000
299	116422	26.075	1000
299	116555	26.1	1000
299	116644	26.125	1000
299	116777	26.15	1000
299	116926	26.175	1000
299	117034	26.2	1000
299	117143	26.225	1000
299	117252	26.25	1000
299	117386	26.275	1000
299	117475	26.3	1000
299	117608	26.325	1000
299	117697	26.35	1000
299	117830	26.375	1000
299	117919	26.4	1000
299	118052	26.425	1000
299	118201	26.45	1000
299	118309	26.475	1000
299	118443	26.5	1000
299	118532	26.525	1000
299	118665	26.55	1000
299	118754	26.575	1000
299	118887	26.6	1000
299	118976	26.625	1000
299	119109	26.65	1000
299	119198	26.675	1000
299	119331	26.7	1000
299	119420	26.725	1000
299	119553	26.75	1000
299	119705	26.775	1000
299	119838	26.8	1000
299	119927	26.825	1000
299	120060	26.85	1000
299	120149	26.875	1000
299	120282	26.9	1000
299	120371	26.925	1000
299	120504	26.95	1000
299	120593	26.975	1000
299	120723	27	1000
299	120857	27.025	1000
299	120946	27.05	1000
299	121054	27.075	1000
299	121188	27.1	1000
299	121277	27.125	1000
299	121410	27.15	1000
299	121499	27.175	1000
299	121632	27.2	1000
299	121721	27.225	1000
299	121859	27.25	1000
299	121948	27.275	1000
299	122081	27.3	1000
299	122233	27.325	1000
299	122366	27.35	1000
299	122455	27.375	1000
299	122596	27.4	1000
299	122745	27.425	1000
299	122853	27.45	1000
299	122987	27.475	1000
299	123076	27.5	1000
299	123184	27.525	1000
299	123318	27.55	1000
299	123407	27.575	1000
299	123540	27.6	1000
299	123629	27.625	1000
299	123737	27.65	1000
299	123871	27.675	1000
299	124023	27.7	1000
299	124156	27.725	1000
299	124308	27.75	1000
299	124441	27.775	1000
299	124530	27.8	1000
299	124663	27.825	1000
299	124752	27.85	1000
299	124885	27.875	1000
299	124975	27.9	1000
299	125109	27.925	1000
299	125199	27.95	1000
299	125332	27.975	1000
299	125443	28	1000
299	125576	28.025	1000
299	125665	28.05	1000
299	125798	28.075	1000
299	125887	28.1	1000
299	125941	28.125	1000
299	126074	28.15	1000
299	126163	28.175	1000
299	126271	28.2	1000
299	126380	28.225	1000
299	126435	28.25	1000
299	126543	28.275	1000
299	126677	28.3	1000
299	126766	28.325	1000
299	126874	28.35	1000
299	127008	28.375	1000
299	127097	28.4	1000
299	127230	28.425	1000
299	127379	28.45	1000
299	127512	28.475	1000
299	127601	28.5	1000
299	127734	28.525	1000
299	127823	28.55	1000
299	127956	28.575	1000
299	128045	28.6	1000
299	128178	28.625	1000
299	128327	28.65	1000
299	128435	28.675	1000
299	128569	28.7	1000
299	128721	28.725	1000
299	128829	28.75	1000
299	128964	28.775	1000
299	129053	28.8	1000
299	129161	28.825	1000
299	129295	28.85	1000
299	129384	28.875	1000
299	129492	28.9	1000
299	129626	28.925	1000
299	129715	28.95	1000
299	129823	28.975	1000
299	129979	29	1000
299	130068	29.025	1000
299	130176	29.05	1000
299	130310	29.075	1000
299	130399	29.1	1000
299	130532	29.125	1000
299	130621	29.15	1000
299	130754	29.175	1000
299	130843	29.2	1000
299	130976	29.225	1000
299	131065	29.25	1000
299	131198	29.275	1000
299	131287	29.3	1000
299	131420	29.325	1000
299	131509	29.35	1000
299	131642	29.375	1000
299	131731	29.4	1000
299	131864	29.425	1000
299	131953	29.45	1000
299	132086	29.475	1000
299	132175	29.5	1000
299	132308	29.525	1000
299	132397	29.55	1000
299	132530	29.575	1000
299	132682	29.6	1000
299	132815	29.625	1000
299	132904	29.65	1000
299	133037	29.675	1000
299	133126	29.7	1000
299	133259	29.725	1000
299	133411	29.75	1000
299	133544	29.775	1000
299	133633	29.8	1000
299	133766	29.825	1000
299	133855	29.85	1000
299	133989	29.875	1000
299	134079	29.9	1000
299	134213	29.925	1000
299	134302	29.95	1000
299	134435	29.975	1000
299	134546	30	1000
299	134679	30.025	1000
299	134828	30.05	1000
299	134961	30.075	1000
299	135050	30.1	1000
299	135183	30.125	1000
299	135335	30.15	1000
299	135468	30.175	1000
299	135617	30.2	1000
299	135750	30.225	1000
299	135839	30.25	1000
299	135972	30.275	1000
299	136061	30.3	1000
299	136194	30.325	1000
299	136283	30.35	1000
299	136416	30.375	1000
299	136505	30.4	1000
299	136638	30.425	1000
299	136727	30.45	1000
299	136860	30.475	1000
299	136949	30.5	1000
299	137082	30.525	1000
299	137171	30.55	1000
299	137304	30.575	1000
299	137393	30.6	1000
299	137526	30.625	1000
299	137615	30.65	1000
299	137723	30.675	1000
299	137832	30.7	1000
299	137967	30.725	1000
299	138056	30.75	1000
299	138189	30.775	1000
299	138341	30.8	1000
299	138449	30.825	1000
299	138583	30.85	1000
299	138672	30.875	1000
299	138805	30.9	1000
299	138957	30.925	1000
299	139090	30.95	1000
299	139179	30.975	1000
299	139334	31	1000
299	139423	31.025	1000
299	139556	31.05	1000
299	139645	31.075	1000
299	139778	31.1	1000
299	139867	31.125	1000
299	139921	31.15	1000
299	140054	31.175	1000
299	140143	31.2	1000
299	140276	31.225	1000
299	140365	31.25	1000
299	140498	31.275	1000
299	140647	31.3	1000
299	140780	31.325	1000
299	140869	31.35	1000
299	140977	31.375	1000
299	141111	31.4	1000
299	141200	31.425	1000
299	141333	31.45	1000
299	141422	31.475	1000
299	141555	31.5	1000
299	141644	31.525	1000
299	141777	31.55	1000
299	141866	31.575	1000
299	141999	31.6	1000
299	142088	31.625	1000
299	142221	31.65	1000
299	142310	31.675	1000
299	142418	31.7	1000
299	142552	31.725	1000
299	142641	31.75	1000
299	142774	31.775	1000
299	142863	31.8	1000
299	142996	31.825	1000
299	143085	31.85	1000
299	143221	31.875	1000
299	143310	31.9	1000
299	143443	31.925	1000
299	143532	31.95	1000
299	143640	31.975	1000
299	143796	32	1000
299	143945	32.025	1000
299	144078	32.05	1000
299	144167	32.075	1000
299	144300	32.1	1000
299	144389	32.125	1000
299	144522	32.15	1000
299	144674	32.175	1000
299	144808	32.2	1000
299	144897	32.225	1000
299	145030	32.25	1000
299	145119	32.275	1000
299	145252	32.3	1000
299	145341	32.325	1000
299	145474	32.35	1000
299	145626	32.375	1000
299	145759	32.4	1000
299	145911	32.425	1000
299	146044	32.45	1000
299	146133	32.475	1000
299	146266	32.5	1000
299	146355	32.525	1000
299	146488	32.55	1000
299	146577	32.575	1000
299	146710	32.6	1000
299	146859	32.625	1000
299	146967	32.65	1000
299	147101	32.675	1000
299	147190	32.7	1000
299	147323	32.725	1000
299	147412	32.75	1000
299	147545	32.775	1000
299	147634	32.8	1000
299	147767	32.825	1000
299	147856	32.85	1000
299	147989	32.875	1000
299	148078	32.9	1000
299	148211	32.925	1000
299	148363	32.95	1000
299	148496	32.975	1000
299	148607	33	1000
299	148740	33.025	1000
299	148829	33.05	1000
299	148937	33.075	1000
299	149071	33.1	1000
299	149160	33.125	1000
299	149293	33.15	1000
299	149382	33.175	1000
299	149515	33.2	1000
299	149604	33.225	1000
299	149712	33.25	1000
299	149821	33.275	1000
299	149930	33.3	1000
299	150064	33.325	1000
299	150153	33.35	1000
299	150286	33.375	1000
299	150435	33.4	1000
299	150568	33.425	1000
299	150657	33.45	1000
299	150790	33.475	1000
299	150879	33.5	1000
299	151012	33.525	1000
299	151101	33.55	1000
299	151155	33.575	1000
299	151288	33.6	1000
299	151377	33.625	1000
299	151510	33.65	1000
299	151599	33.675	1000
299	151707	33.7	1000
299	151841	33.725	1000
299	151930	33.75	1000
299	152063	33.775	1000
299	152215	33.8	1000
299	152348	33.825	1000
299	152438	33.85	1000
299	152573	33.875	1000
299	152725	33.9	1000
299	152833	33.925	1000
299	152967	33.95	1000
299	153119	33.975	1000
299	153274	34	1000
299	153363	34.025	1000
299	153471	34.05	1000
299	153580	34.075	1000
299	153714	34.1	1000
299	153803	34.125	1000
299	153936	34.15	1000
299	154026	34.175	1000
299	154159	34.2	1000
299	154248	34.225	1000
299	154356	34.25	1000
299	154490	34.275	1000
299	154642	34.3	1000
299	154775	34.325	1000
299	154864	34.35	1000
299	154997	34.375	1000
299	155086	34.4	1000
299	155194	34.425	1000
299	155328	34.45	1000
299	155477	34.475	1000
299	155610	34.5	1000
299	155759	34.525	1000
299	155892	34.55	1000
299	155981	34.575	1000
299	156114	34.6	1000
299	156203	34.625	1000
299	156336	34.65	1000
299	156425	34.675	1000
299	156558	34.7	1000
299	156647	34.725	1000
299	156780	34.75	1000
299	156869	34.775	1000
299	157002	34.8	1000
299	157091	34.825	1000
299	157224	34.85	1000
299	157313	34.875	1000
299	157446	34.9	1000
299	157535	34.925	1000
299	157643	34.95	1000
299	157777	34.975	1000
299	157888	35	1000
299	158021	35.025	1000
299	158110	35.05	1000
299	158243	35.075	1000
299	158332	35.1	1000
299	158465	35.125	1000
299	158554	35.15	1000
299	158687	35.175	1000
299	158776	35.2	1000
299	158909	35.225	1000
299	159061	35.25	1000
299	159194	35.275	1000
299	159283	35.3	1000
299	159391	35.325	1000
299	159525	35.35	1000
299	159614	35.375	1000
299	159722	35.4	1000
299	159856	35.425	1000
299	159945	35.45	1000
299	160078	35.475	1000
299	160167	35.5	1000
299	160300	35.525	1000
299	160389	35.55	1000
299	160522	35.575	1000
299	160611	35.6	1000
299	160744	35.625	1000
299	160833	35.65	1000
299	160966	35.675	1000
299	161055	35.7	1000
299	161188	35.725	1000
299	161277	35.75	1000
299	161410	35.775	1000
299	161499	35.8	1000
299	161634	35.825	1000
299	161723	35.85	1000
299	161857	35.875	1000
299	161946	35.9	1000
299	162079	35.925	1000
299	162168	35.95	1000
299	162277	35.975	1000
299	162433	36	1000
299	162522	36.025	1000
299	162630	36.05	1000
299	162764	36.075	1000
299	162853	36.1	1000
299	162961	36.125	1000
299	163095	36.15	1000
299	163184	36.175	1000
299	163317	36.2	1000
299	163406	36.225	1000
299	163539	36.25	1000
299	163628	36.275	1000
299	163761	36.3	1000
299	163910	36.325	1000
299	164018	36.35	1000
299	164152	36.375	1000
299	164241	36.4	1000
299	164349	36.425	1000
299	164483	36.45	1000
299	164572	36.475	1000
299	164705	36.5	1000
299	164794	36.525	1000
299	164927	36.55	1000
299	165016	36.575	1000
299	165149	36.6	1000
299	165238	36.625	1000
299	165371	36.65	1000
299	165460	36.675	1000
299	165593	36.7	1000
299	165682	36.725	1000
299	165815	36.75	1000
299	165904	36.775	1000
299	166037	36.8	1000
299	166126	36.825	1000
299	166259	36.85	1000
299	166348	36.875	1000
299	166481	36.9	1000
299	166570	36.925	1000
299	166703	36.95	1000
299	166792	36.975	1000
299	166947	37	1000
299	167036	37.025	1000
299	167169	37.05	1000
299	167258	37.075	1000
299	167391	37.1	1000
299	167480	37.125	1000
299	167613	37.15	1000
299	167762	37.175	1000
299	167895	37.2	1000
299	167984	37.225	1000
299	168118	37.25	1000
299	168207	37.275	1000
299	168340	37.3	1000
299	168489	37.325	1000
299	168622	37.35	1000
299	168774	37.375	1000
299	168882	37.4	1000
299	169016	37.425	1000
299	169165	37.45	1000
299	169298	37.475	1000
299	169387	37.5	1000
299	169520	37.525	1000
299	169609	37.55	1000
299	169742	37.575	1000
299	169831	37.6	1000
299	169964	37.625	1000
299	170053	37.65	1000
299	170186	37.675	1000
299	170275	37.7	1000
299	170383	37.725	1000
299	170517	37.75	1000
299	170606	37.775	1000
299	170740	37.8	1000
299	170831	37.825	1000
299	170964	37.85	1000
299	171053	37.875	1000
299	171186	37.9	1000
299	171275	37.925	1000
299	171408	37.95	1000
299	171497	37.975	1000
299	171652	38	1000
299	171801	38.025	1000
299	171909	38.05	1000
299	172043	38.075	1000
299	172132	38.1	1000
299	172265	38.125	1000
299	172354	38.15	1000
299	172487	38.175	1000
299	172576	38.2	1000
299	172709	38.225	1000
299	172861	38.25	1000
299	172994	38.275	1000
299	173083	38.3	1000
299	173191	38.325	1000
299	173325	38.35	1000
299	173414	38.375	1000
299	173547	38.4	1000
299	173636	38.425	1000
299	173769	38.45	1000
299	173858	38.475	1000
299	173991	38.5	1000
299	174080	38.525	1000
299	174213	38.55	1000
299	174302	38.575	1000
299	174435	38.6	1000
299	174524	38.625	1000
299	174657	38.65	1000
299	174746	38.675	1000
299	174879	38.7	1000
299	174968	38.725	1000
299	175101	38.75	1000
299	175190	38.775	1000
299	175298	38.8	1000
299	175432	38.825	1000
299	175521	38.85	1000
299	175654	38.875	1000
299	175743	38.9	1000
299	175876	38.925	1000
299	175965	38.95	1000
299	176098	38.975	1000
299	176209	39	1000
299	176342	39.025	1000
299	176431	39.05	1000
299	176539	39.075	1000
299	176673	39.1	1000
299	176819	39.125	1000
299	176953	39.15	1000
299	177043	39.175	1000
299	177176	39.2	1000
299	177265	39.225	1000
299	177398	39.25	1000
299	177487	39.275	1000
299	177620	39.3	1000
299	177772	39.325	1000
299	177905	39.35	1000
299	177994	39.375	1000
299	178102	39.4	1000
299	178236	39.425	1000
299	178325	39.45	1000
299	178458	39.475	1000
299	178547	39.5	1000
299	178680	39.525	1000
299	178769	39.55	1000
299	178902	39.575	1000
299	178991	39.6	1000
299	179124	39.625	1000
299	179213	39.65	1000
299	179346	39.675	1000
299	179498	39.7	1000
299	179631	39.725	1000
299	179720	39.75	1000
299	179829	39.775	1000
299	179965	39.8	1000
299	180054	39.825	1000
299	180187	39.85	1000
299	180276	39.875	1000
299	180409	39.9	1000
299	180498	39.925	1000
299	180631	39.95	1000
299	180720	39.975	1000
299	180875	40	1000
299	181027	40.025	1000
299	181160	40.05	1000
299	181249	40.075	1000
299	181357	40.1	1000
299	181466	40.125	1000
299	181600	40.15	1000
299	181689	40.175	1000
299	181822	40.2	1000
299	181911	40.225	1000
299	182045	40.25	1000
299	182134	40.275	1000
299	182242	40.3	1000
299	182376	40.325	1000
299	182465	40.35	1000
299	182598	40.375	1000
299	182687	40.4	1000
299	182795	40.425	1000
299	182929	40.45	1000
299	183018	40.475	1000
299	183151	40.5	1000
299	183240	40.525	1000
299	183373	40.55	1000
299	183462	40.575	1000
299	183595	40.6	1000
299	183684	40.625	1000
299	183817	40.65	1000
299	183906	40.675	1000
299	184039	40.7	1000
299	184128	40.725	1000
299	184236	40.75	1000
299	184370	40.775	1000
299	184459	40.8	1000
299	184592	40.825	1000
299	184681	40.85	1000
299	184814	40.875	1000
299	184903	40.9	1000
299	185036	40.925	1000
299	185125	40.95	1000
299	185258	40.975	1000
299	185369	41	1000
299	185502	41.025	1000
299	185591	41.05	1000
299	185724	41.075	1000
299	185813	41.1	1000
299	185946	41.125	1000
299	186035	41.15	1000
299	186168	41.175	1000
299	186257	41.2	1000
299	186390	41.225	1000
299	186539	41.25	1000
299	186672	41.275	1000
299	186761	41.3	1000
299	186894	41.325	1000
299	186983	41.35	1000
299	187116	41.375	1000
299	187205	41.4	1000
299	187259	41.425	1000
299	187392	41.45	1000
299	187541	41.475	1000
299	187674	41.5	1000
299	187763	41.525	1000
299	187896	41.55	1000
299	187985	41.575	1000
299	188118	41.6	1000
299	188207	41.625	1000
299	188340	41.65	1000
299	188429	41.675	1000
299	188537	41.7	1000
299	188646	41.725	1000
299	188781	41.75	1000
299	188871	41.775	1000
299	189005	41.8	1000
299	189094	41.825	1000
299	189227	41.85	1000
299	189379	41.875	1000
299	189512	41.9	1000
299	189601	41.925	1000
299	189734	41.95	1000
299	189883	41.975	1000
299	190038	42	1000
299	190128	42.025	1000
299	190261	42.05	1000
299	190350	42.075	1000
299	190483	42.1	1000
299	190572	42.125	1000
299	190705	42.15	1000
299	190794	42.175	1000
299	190902	42.2	1000
299	191036	42.225	1000
299	191125	42.25	1000
299	191258	42.275	1000
299	191347	42.3	1000
299	191480	42.325	1000
299	191569	42.35	1000
299	191702	42.375	1000
299	191791	42.4	1000
299	191924	42.425	1000
299	192013	42.45	1000
299	192146	42.475	1000
299	192235	42.5	1000
299	192368	42.525	1000
299	192457	42.55	1000
299	192590	42.575	1000
299	192679	42.6	1000
299	192812	42.625	1000
299	192901	42.65	1000
299	193034	42.675	1000
299	193123	42.7	1000
299	193256	42.725	1000
299	193345	42.75	1000
299	193453	42.775	1000
299	193562	42.8	1000
299	193696	42.825	1000
299	193785	42.85	1000
299	193918	42.875	1000
299	194007	42.9	1000
299	194140	42.925	1000
299	194229	42.95	1000
299	194362	42.975	1000
299	194473	43	1000
299	194581	43.025	1000
299	194715	43.05	1000
299	194804	43.075	1000
299	194937	43.1	1000
299	195026	43.125	1000
299	195159	43.15	1000
299	195248	43.175	1000
299	195356	43.2	1000
299	195490	43.225	1000
299	195579	43.25	1000
299	195712	43.275	1000
299	195801	43.3	1000
299	195934	43.325	1000
299	196023	43.35	1000
299	196131	43.375	1000
299	196265	43.4	1000
299	196354	43.425	1000
299	196487	43.45	1000
299	196576	43.475	1000
299	196709	43.5	1000
299	196798	43.525	1000
299	196931	43.55	1000
299	197020	43.575	1000
299	197153	43.6	1000
299	197242	43.625	1000
299	197350	43.65	1000
299	197484	43.675	1000
299	197633	43.7	1000
299	197767	43.725	1000
299	197858	43.75	1000
299	197966	43.775	1000
299	198100	43.8	1000
299	198189	43.825	1000
299	198297	43.85	1000
299	198431	43.875	1000
299	198520	43.9	1000
299	198628	43.925	1000
299	198762	43.95	1000
299	198912	43.975	1000
299	199067	44	1000
299	199156	44.025	1000
299	199289	44.05	1000
299	199378	44.075	1000
299	199511	44.1	1000
299	199600	44.125	1000
299	199708	44.15	1000
299	199842	44.175	1000
299	199931	44.2	1000
299	200064	44.225	1000
299	200153	44.25	1000
299	200286	44.275	1000
299	200375	44.3	1000
299	200508	44.325	1000
299	200597	44.35	1000
299	200730	44.375	1000
299	200819	44.4	1000
299	200952	44.425	1000
299	201041	44.45	1000
299	201174	44.475	1000
299	201263	44.5	1000
299	201396	44.525	1000
299	201485	44.55	1000
299	201618	44.575	1000
299	201707	44.6	1000
299	201840	44.625	1000
299	201929	44.65	1000
299	202062	44.675	1000
299	202151	44.7	1000
299	202284	44.725	1000
299	202373	44.75	1000
299	202506	44.775	1000
299	202595	44.8	1000
299	202703	44.825	1000
299	202837	44.85	1000
299	202926	44.875	1000
299	203059	44.9	1000
299	203208	44.925	1000
299	203341	44.95	1000
299	203430	44.975	1000
299	203585	45	1000
299	203674	45.025	1000
299	203782	45.05	1000
299	203916	45.075	1000
299	204005	45.1	1000
299	204113	45.125	1000
299	204247	45.15	1000
299	204336	45.175	1000
299	204469	45.2	1000
299	204558	45.225	1000
299	204691	45.25	1000
299	204780	45.275	1000
299	204913	45.3	1000
299	205002	45.325	1000
299	205110	45.35	1000
299	205244	45.375	1000
299	205333	45.4	1000
299	205466	45.425	1000
299	205555	45.45	1000
299	205663	45.475	1000
299	205797	45.5	1000
299	205886	45.525	1000
299	205994	45.55	1000
299	206128	45.575	1000
299	206217	45.6	1000
299	206350	45.625	1000
299	206439	45.65	1000
299	206572	45.675	1000
299	206663	45.7	1000
299	206798	45.725	1000
299	206887	45.75	1000
299	207020	45.775	1000
299	207109	45.8	1000
299	207242	45.825	1000
299	207331	45.85	1000
299	207464	45.875	1000
299	207553	45.9	1000
299	207686	45.925	1000
299	207775	45.95	1000
299	207908	45.975	1000
299	208019	46	1000
299	208152	46.025	1000
299	208241	46.05	1000
299	208374	46.075	1000
299	208463	46.1	1000
299	208596	46.125	1000
299	208685	46.15	1000
299	208818	46.175	1000
299	208907	46.2	1000
299	209040	46.225	1000
299	209129	46.25	1000
299	209262	46.275	1000
299	209351	46.3	1000
299	209484	46.325	1000
299	209573	46.35	1000
299	209706	46.375	1000
299	209795	46.4	1000
299	209903	46.425	1000
299	210037	46.45	1000
299	210126	46.475	1000
299	210234	46.5	1000
299	210368	46.525	1000
299	210457	46.55	1000
299	210590	46.575	1000
299	210739	46.6	1000
299	210872	46.625	1000
299	210961	46.65	1000
299	211094	46.675	1000
299	211246	46.7	1000
299	211379	46.725	1000
299	211468	46.75	1000
299	211601	46.775	1000
299	211690	46.8	1000
299	211798	46.825	1000
299	211932	46.85	1000
299	212084	46.875	1000
299	212217	46.9	1000
299	212367	46.925	1000
299	212500	46.95	1000
299	212589	46.975	1000
299	212719	47	1000
299	212853	47.025	1000
299	212942	47.05	1000
299	213075	47.075	1000
299	213164	47.1	1000
299	213272	47.125	1000
299	213381	47.15	1000
299	213515	47.175	1000
299	213604	47.2	1000
299	213737	47.225	1000
299	213826	47.25	1000
299	213934	47.275	1000
299	214068	47.3	1000
299	214157	47.325	1000
299	214290	47.35	1000
299	214379	47.375	1000
299	214512	47.4	1000
299	214601	47.425	1000
299	214734	47.45	1000
299	214823	47.475	1000
299	214956	47.5	1000
299	215105	47.525	1000
299	215238	47.55	1000
299	215327	47.575	1000
299	215460	47.6	1000
299	215549	47.625	1000
299	215682	47.65	1000
299	215773	47.675	1000
299	215906	47.7	1000
299	215996	47.725	1000
299	216129	47.75	1000
299	216218	47.775	1000
299	216351	47.8	1000
299	216503	47.825	1000
299	216636	47.85	1000
299	216725	47.875	1000
299	216858	47.9	1000
299	216947	47.925	1000
299	217080	47.95	1000
299	217169	47.975	1000
299	217324	48	1000
299	217413	48.025	1000
299	217546	48.05	1000
299	217635	48.075	1000
299	217768	48.1	1000
299	217857	48.125	1000
299	217965	48.15	1000
299	218099	48.175	1000
299	218188	48.2	1000
299	218321	48.225	1000
299	218410	48.25	1000
299	218543	48.275	1000
299	218692	48.3	1000
299	218825	48.325	1000
299	218914	48.35	1000
299	219047	48.375	1000
299	219136	48.4	1000
299	219269	48.425	1000
299	219358	48.45	1000
299	219491	48.475	1000
299	219580	48.5	1000
299	219688	48.525	1000
299	219822	48.55	1000
299	219911	48.575	1000
299	220044	48.6	1000
299	220133	48.625	1000
299	220241	48.65	1000
299	220375	48.675	1000
299	220464	48.7	1000
299	220597	48.725	1000
299	220746	48.75	1000
299	220879	48.775	1000
299	220968	48.8	1000
299	221101	48.825	1000
299	221190	48.85	1000
299	221323	48.875	1000
299	221475	48.9	1000
299	221609	48.925	1000
299	221698	48.95	1000
299	221806	48.975	1000
299	221962	49	1000
299	222051	49.025	1000
299	222184	49.05	1000
299	222273	49.075	1000
299	222406	49.1	1000
299	222495	49.125	1000
299	222628	49.15	1000
299	222717	49.175	1000
299	222850	49.2	1000
299	222939	49.225	1000
299	223072	49.25	1000
299	223161	49.275	1000
299	223269	49.3	1000
299	223403	49.325	1000
299	223492	49.35	1000
299	223625	49.375	1000
299	223714	49.4	1000
299	223847	49.425	1000
299	223936	49.45	1000
299	224069	49.475	1000
299	224221	49.5	1000
299	224354	49.525	1000
299	224443	49.55	1000
299	224576	49.575	1000
299	224725	49.6	1000
299	224833	49.625	1000
299	224969	49.65	1000
299	225058	49.675	1000
299	225192	49.7	1000
299	225281	49.725	1000
299	225414	49.75	1000
299	225503	49.775	1000
299	225636	49.8	1000
299	225725	49.825	1000
299	225858	49.85	1000
299	225947	49.875	1000
299	226080	49.9	1000
299	226169	49.925	1000
299	226277	49.95	1000
299	226411	49.975	1000
299	226522	50	1000
299	226655	50.025	1000
299	226744	50.05	1000
299	226877	50.075	1000
299	226966	50.1	1000
299	227099	50.125	1000
299	227188	50.15	1000
299	227321	50.175	1000
299	227410	50.2	1000
299	227543	50.225	1000
299	227632	50.25	1000
299	227765	50.275	1000
299	227854	50.3	1000
299	227987	50.325	1000
299	228076	50.35	1000
299	228209	50.375	1000
299	228298	50.4	1000
299	228431	50.425	1000
299	228520	50.45	1000
299	228653	50.475	1000
299	228742	50.5	1000
299	228875	50.525	1000
299	228964	50.55	1000
299	229018	50.575	1000
299	229072	50.6	1000
299	229205	50.625	1000
299	229294	50.65	1000
299	229427	50.675	1000
299	229576	50.7	1000
299	229684	50.725	1000
299	229818	50.75	1000
299	229907	50.775	1000
299	230040	50.8	1000
299	230129	50.825	1000
299	230262	50.85	1000
299	230351	50.875	1000
299	230485	50.9	1000
299	230574	50.925	1000
299	230707	50.95	1000
299	230856	50.975	1000
299	231011	51	1000
299	231163	51.025	1000
299	231271	51.05	1000
299	231380	51.075	1000
299	231514	51.1	1000
299	231603	51.125	1000
299	231736	51.15	1000
299	231825	51.175	1000
299	231933	51.2	1000
299	232067	51.225	1000
299	232156	51.25	1000
299	232289	51.275	1000
299	232378	51.3	1000
299	232511	51.325	1000
299	232600	51.35	1000
299	232654	51.375	1000
299	232787	51.4	1000
299	232876	51.425	1000
299	233009	51.45	1000
299	233098	51.475	1000
299	233231	51.5	1000
299	233320	51.525	1000
299	233428	51.55	1000
299	233562	51.575	1000
299	233651	51.6	1000
299	233786	51.625	1000
299	233938	51.65	1000
299	234071	51.675	1000
299	234161	51.7	1000
299	234294	51.725	1000
299	234443	51.75	1000
299	234551	51.775	1000
299	234685	51.8	1000
299	234774	51.825	1000
299	234907	51.85	1000
299	235056	51.875	1000
299	235164	51.9	1000
299	235298	51.925	1000
299	235387	51.95	1000
299	235520	51.975	1000
299	235631	52	1000
299	235764	52.025	1000
299	235853	52.05	1000
299	235986	52.075	1000
299	236075	52.1	1000
299	236208	52.125	1000
299	236297	52.15	1000
299	236405	52.175	1000
299	236539	52.2	1000
299	236691	52.225	1000
299	236824	52.25	1000
299	236913	52.275	1000
299	237046	52.3	1000
299	237135	52.325	1000
299	237268	52.35	1000
299	237417	52.375	1000
299	237550	52.4	1000
299	237639	52.425	1000
299	237772	52.45	1000
299	237921	52.475	1000
299	238029	52.5	1000
299	238138	52.525	1000
299	238272	52.55	1000
299	238361	52.575	1000
299	238494	52.6	1000
299	238583	52.625	1000
299	238691	52.65	1000
299	238800	52.675	1000
299	238935	52.7	1000
299	239024	52.725	1000
299	239157	52.75	1000
299	239246	52.775	1000
299	239354	52.8	1000
299	239488	52.825	1000
299	239637	52.85	1000
299	239770	52.875	1000
299	239859	52.9	1000
299	239967	52.925	1000
299	240101	52.95	1000
299	240190	52.975	1000
299	240345	53	1000
299	240434	53.025	1000
299	240567	53.05	1000
299	240656	53.075	1000
299	240789	53.1	1000
299	240941	53.125	1000
299	241074	53.15	1000
299	241163	53.175	1000
299	241296	53.2	1000
299	241385	53.225	1000
299	241518	53.25	1000
299	241607	53.275	1000
299	241740	53.3	1000
299	241829	53.325	1000
299	241937	53.35	1000
299	241992	53.375	1000
299	242125	53.4	1000
299	242214	53.425	1000
299	242322	53.45	1000
299	242431	53.475	1000
299	242565	53.5	1000
299	242654	53.525	1000
299	242787	53.55	1000
299	242877	53.575	1000
299	242986	53.6	1000
299	243095	53.625	1000
299	243150	53.65	1000
299	243284	53.675	1000
299	243433	53.7	1000
299	243566	53.725	1000
299	243718	53.75	1000
299	243826	53.775	1000
299	243960	53.8	1000
299	244049	53.825	1000
299	244157	53.85	1000
299	244291	53.875	1000
299	244380	53.9	1000
299	244513	53.925	1000
299	244602	53.95	1000
299	244735	53.975	1000
299	244846	54	1000
299	244954	54.025	1000
299	245009	54.05	1000
299	245142	54.075	1000
299	245231	54.1	1000
299	245364	54.125	1000
299	245453	54.15	1000
299	245586	54.175	1000
299	245675	54.2	1000
299	245808	54.225	1000
299	245897	54.25	1000
299	246030	54.275	1000
299	246119	54.3	1000
299	246227	54.325	1000
299	246361	54.35	1000
299	246450	54.375	1000
299	246583	54.4	1000
299	246672	54.425	1000
299	246805	54.45	1000
299	246958	54.475	1000
299	247066	54.5	1000
299	247200	54.525	1000
299	247289	54.55	1000
299	247422	54.575	1000
299	247511	54.6	1000
299	247644	54.625	1000
299	247733	54.65	1000
299	247841	54.675	1000
299	247975	54.7	1000
299	248064	54.725	1000
299	248172	54.75	1000
299	248281	54.775	1000
299	248415	54.8	1000
299	248504	54.825	1000
299	248637	54.85	1000
299	248726	54.875	1000
299	248859	54.9	1000
299	248948	54.925	1000
299	249056	54.95	1000
299	249190	54.975	1000
299	249361	55	1000
299	249494	55.025	1000
299	249583	55.05	1000
299	249716	55.075	1000
299	249805	55.1	1000
299	249938	55.125	1000
299	250027	55.15	1000
299	250160	55.175	1000
299	250249	55.2	1000
299	250382	55.225	1000
299	250534	55.25	1000
299	250642	55.275	1000
299	250776	55.3	1000
299	250865	55.325	1000
299	250998	55.35	1000
299	251087	55.375	1000
299	251220	55.4	1000
299	251309	55.425	1000
299	251363	55.45	1000
299	251496	55.475	1000
299	251585	55.5	1000
299	251718	55.525	1000
299	251808	55.55	1000
299	251942	55.575	1000
299	252031	55.6	1000
299	252164	55.625	1000
299	252313	55.65	1000
299	252447	55.675	1000
299	252536	55.7	1000
299	252669	55.725	1000
299	252758	55.75	1000
299	252891	55.775	1000
299	252980	55.8	1000
299	253113	55.825	1000
299	253202	55.85	1000
299	253335	55.875	1000
299	253424	55.9	1000
299	253557	55.925	1000
299	253646	55.95	1000
299	253779	55.975	1000
299	253890	56	1000
299	253944	56.025	1000
299	254077	56.05	1000
299	254166	56.075	1000
299	254299	56.1	1000
299	254388	56.125	1000
299	254521	56.15	1000
299	254610	56.175	1000
299	254743	56.2	1000
299	254832	56.225	1000
299	254965	56.25	1000
299	255054	56.275	1000
299	255187	56.3	1000
299	255339	56.325	1000
299	255472	56.35	1000
299	255624	56.375	1000
299	255757	56.4	1000
299	255846	56.425	1000
299	255979	56.45	1000
299	256069	56.475	1000
299	256202	56.5	1000
299	256291	56.525	1000
299	256399	56.55	1000
299	256533	56.575	1000
299	256682	56.6	1000
299	256815	56.625	1000
299	256967	56.65	1000
299	257100	56.675	1000
299	257189	56.7	1000
299	257297	56.725	1000
299	257431	56.75	1000
299	257580	56.775	1000
299	257713	56.8	1000
299	257865	56.825	1000
299	257998	56.85	1000
299	258087	56.875	1000
299	258220	56.9	1000
299	258309	56.925	1000
299	258442	56.95	1000
299	258531	56.975	1000
299	258686	57	1000
299	258835	57.025	1000
299	258968	57.05	1000
299	259057	57.075	1000
299	259190	57.1	1000
299	259279	57.125	1000
299	259412	57.15	1000
299	259501	57.175	1000
299	259634	57.2	1000
299	259723	57.225	1000
299	259856	57.25	1000
299	259945	57.275	1000
299	260078	57.3	1000
299	260167	57.325	1000
299	260300	57.35	1000
299	260389	57.375	1000
299	260522	57.4	1000
299	260611	57.425	1000
299	260744	57.45	1000
299	260833	57.475	1000
299	260966	57.5	1000
299	261119	57.525	1000
299	261253	57.55	1000
299	261342	57.575	1000
299	261475	57.6	1000
299	261564	57.625	1000
299	261697	57.65	1000
299	261787	57.675	1000
299	261920	57.7	1000
299	262009	57.725	1000
299	262142	57.75	1000
299	262294	57.775	1000
299	262427	57.8	1000
299	262576	57.825	1000
299	262709	57.85	1000
299	262798	57.875	1000
299	262931	57.9	1000
299	263083	57.925	1000
299	263216	57.95	1000
299	263305	57.975	1000
299	263435	58	1000
299	263569	58.025	1000
299	263658	58.05	1000
299	263791	58.075	1000
299	263940	58.1	1000
299	264073	58.125	1000
299	264225	58.15	1000
299	264358	58.175	1000
299	264447	58.2	1000
299	264580	58.225	1000
299	264669	58.25	1000
299	264802	58.275	1000
299	264891	58.3	1000
299	265024	58.325	1000
299	265176	58.35	1000
299	265285	58.375	1000
299	265419	58.4	1000
299	265571	58.425	1000
299	265704	58.45	1000
299	265793	58.475	1000
299	265926	58.5	1000
299	266015	58.525	1000
299	266148	58.55	1000
299	266237	58.575	1000
299	266345	58.6	1000
299	266479	58.625	1000
299	266568	58.65	1000
299	266676	58.675	1000
299	266810	58.7	1000
299	266899	58.725	1000
299	267032	58.75	1000
299	267181	58.775	1000
299	267314	58.8	1000
299	267403	58.825	1000
299	267536	58.85	1000
299	267625	58.875	1000
299	267758	58.9	1000
299	267847	58.925	1000
299	267980	58.95	1000
299	268069	58.975	1000
299	268199	59	1000
299	268333	59.025	1000
299	268482	59.05	1000
299	268590	59.075	1000
299	268724	59.1	1000
299	268813	59.125	1000
299	268946	59.15	1000
299	269035	59.175	1000
299	269168	59.2	1000
299	269257	59.225	1000
299	269390	59.25	1000
299	269479	59.275	1000
299	269612	59.3	1000
299	269701	59.325	1000
299	269834	59.35	1000
299	269923	59.375	1000
299	270056	59.4	1000
299	270208	59.425	1000
299	270341	59.45	1000
299	270490	59.475	1000
299	270624	59.5	1000
299	270714	59.525	1000
299	270847	59.55	1000
299	270936	59.575	1000
299	271069	59.6	1000
299	271158	59.625	1000
299	271292	59.65	1000
299	271381	59.675	1000
299	271514	59.7	1000
299	271663	59.725	1000
299	271796	59.75	1000
299	271885	59.775	1000
299	272018	59.8	1000
299	272107	59.825	1000
299	272215	59.85	1000
299	272349	59.875	1000
299	272501	59.9	1000
299	272609	59.925	1000
299	272743	59.95	1000
299	272832	59.975	1000
299	272987	60	1000
302	74	0.025	1008
302	428	0.05	1008
302	431	0.075	1008
302	434	0.1	1008
302	437	0.125	1008
302	440	0.15	1008
302	443	0.175	1008
302	446	0.2	1008
302	449	0.225	1008
302	452	0.25	1008
302	455	0.275	1008
302	458	0.3	1008
302	461	0.325	1008
302	630	0.35	1008
302	1730	0.375	1008
302	1733	0.4	1008
302	1736	0.425	1008
302	1739	0.45	1008
302	1742	0.475	1008
302	1745	0.5	1008
302	1748	0.525	1008
302	1751	0.55	1008
302	1754	0.575	1008
302	1757	0.6	1008
302	1760	0.625	1008
302	1763	0.65	1008
302	1766	0.675	1008
302	1769	0.7	1008
302	1772	0.725	1008
302	1775	0.75	1008
302	1778	0.775	1008
302	1781	0.8	1008
302	1785	0.825	1008
302	3294	0.85	1008
302	3300	0.875	1008
302	3303	0.9	1008
302	3306	0.925	1008
302	3309	0.95	1008
302	3312	0.975	1008
302	3337	1	1008
302	3340	1.025	1008
302	3343	1.05	1008
302	3346	1.075	1008
302	3349	1.1	1008
302	3352	1.125	1008
302	3355	1.15	1008
302	3358	1.175	1008
302	3361	1.2	1008
302	3364	1.225	1008
302	3367	1.25	1008
302	3370	1.275	1008
302	3373	1.3	1008
302	3376	1.325	1008
302	3379	1.35	1008
302	3382	1.375	1008
302	3385	1.4	1008
302	3388	1.425	1008
302	3391	1.45	1008
302	3842	1.475	1008
302	5298	1.5	1008
302	5455	1.525	1008
302	5627	1.55	1008
302	5784	1.575	1008
302	6004	1.6	1008
302	6169	1.625	1008
302	6284	1.65	1008
302	6450	1.675	1008
302	6667	1.7	1008
302	6864	1.725	1008
302	7054	1.75	1008
302	7276	1.775	1008
302	7441	1.8	1008
302	7662	1.825	1008
302	7830	1.85	1008
302	8036	1.875	1008
302	8150	1.9	1008
302	8264	1.925	1008
302	8378	1.95	1008
302	8517	1.975	1008
302	8628	2	1008
302	8766	2.025	1008
302	8855	2.05	1008
302	8968	2.075	1008
302	9107	2.1	1008
302	9196	2.125	1008
302	9309	2.15	1008
302	9423	2.175	1008
302	9537	2.2	1008
302	9651	2.225	1008
302	9706	2.25	1008
302	9844	2.275	1008
302	9933	2.3	1008
302	10046	2.325	1008
302	10101	2.35	1008
302	10217	2.375	1008
302	10331	2.4	1008
302	10445	2.425	1008
302	10559	2.45	1008
302	10614	2.475	1008
302	10752	2.5	1008
302	10841	2.525	1008
302	10979	2.55	1008
302	11068	2.575	1008
302	11181	2.6	1008
302	11236	2.625	1008
302	11290	2.65	1008
302	11428	2.675	1008
302	11517	2.7	1008
302	11630	2.725	1008
302	11769	2.75	1008
302	11858	2.775	1008
302	11996	2.8	1008
302	12085	2.825	1008
302	12199	2.85	1008
302	12313	2.875	1008
302	12452	2.9	1008
302	12541	2.925	1008
302	12679	2.95	1008
302	12828	2.975	1008
302	12963	3	1008
302	13018	3.025	1008
302	13156	3.05	1008
302	13245	3.075	1008
302	13383	3.1	1008
302	13472	3.125	1008
302	13585	3.15	1008
302	13724	3.175	1008
302	13813	3.2	1008
302	13926	3.225	1008
302	14040	3.25	1008
302	14179	3.275	1008
302	14268	3.3	1008
302	14406	3.325	1008
302	14495	3.35	1008
302	14549	3.375	1008
302	14603	3.4	1008
302	14716	3.425	1008
302	14855	3.45	1008
302	14985	3.475	1008
302	15238	3.5	1008
302	15377	3.525	1008
302	15466	3.55	1008
302	15579	3.575	1008
302	15693	3.6	1008
302	15832	3.625	1008
302	15921	3.65	1008
302	16059	3.675	1008
302	16148	3.7	1008
302	16202	3.725	1008
302	16315	3.75	1008
302	16370	3.775	1008
302	16508	3.8	1008
302	16597	3.825	1008
302	16651	3.85	1008
302	16789	3.875	1008
302	16878	3.9	1008
302	17016	3.925	1008
302	17105	3.95	1008
302	17159	3.975	1008
302	17294	4	1008
302	17433	4.025	1008
302	17582	4.05	1008
302	17721	4.075	1008
302	17810	4.1	1008
302	17923	4.125	1008
302	18037	4.15	1008
302	18092	4.175	1008
302	18146	4.2	1008
302	18200	4.225	1008
302	18338	4.25	1008
302	18427	4.275	1008
302	18565	4.3	1008
302	18654	4.325	1008
302	18792	4.35	1008
302	18881	4.375	1008
302	18935	4.4	1008
302	19048	4.425	1008
302	19187	4.45	1008
302	19276	4.475	1008
302	19389	4.5	1008
302	19503	4.525	1008
302	19642	4.55	1008
302	19731	4.575	1008
302	19785	4.6	1008
302	19898	4.625	1008
302	20012	4.65	1008
302	20151	4.675	1008
302	20240	4.7	1008
302	20294	4.725	1008
302	20348	4.75	1008
302	20402	4.775	1008
302	20515	4.8	1008
302	20570	4.825	1008
302	20708	4.85	1008
302	20797	4.875	1008
302	20910	4.9	1008
302	20965	4.925	1008
302	21078	4.95	1008
302	21193	4.975	1008
302	21329	5	1008
302	21468	5.025	1008
302	21557	5.05	1008
302	21695	5.075	1008
302	21784	5.1	1008
302	21922	5.125	1008
302	22011	5.15	1008
302	22149	5.175	1008
302	22238	5.2	1008
302	22376	5.225	1008
302	22465	5.25	1008
302	22603	5.275	1008
302	22692	5.3	1008
302	22746	5.325	1008
302	22884	5.35	1008
302	22973	5.375	1008
302	23086	5.4	1008
302	23225	5.425	1008
302	23316	5.45	1008
302	23371	5.475	1008
302	23510	5.5	1008
302	23599	5.525	1008
302	23737	5.55	1008
302	23826	5.575	1008
302	23880	5.6	1008
302	24018	5.625	1008
302	24107	5.65	1008
302	24220	5.675	1008
302	24275	5.7	1008
302	24388	5.725	1008
302	24502	5.75	1008
302	24557	5.775	1008
302	24695	5.8	1008
302	24784	5.825	1008
302	24922	5.85	1008
302	25011	5.875	1008
302	25149	5.9	1008
302	25238	5.925	1008
302	25351	5.95	1008
302	25490	5.975	1008
302	25601	6	1008
302	25655	6.025	1008
302	25768	6.05	1008
302	25882	6.075	1008
302	25937	6.1	1008
302	26075	6.125	1008
302	26164	6.15	1008
302	26218	6.175	1008
302	26356	6.2	1008
302	26445	6.225	1008
302	26499	6.25	1008
302	26612	6.275	1008
302	26667	6.3	1008
302	26721	6.325	1008
302	26859	6.35	1008
302	26948	6.375	1008
302	27086	6.4	1008
302	27175	6.425	1008
302	27288	6.45	1008
302	27427	6.475	1008
302	27516	6.5	1008
302	27570	6.525	1008
302	27683	6.55	1008
302	27738	6.575	1008
302	27876	6.6	1008
302	27965	6.625	1008
302	28019	6.65	1008
302	28132	6.675	1008
302	28187	6.7	1008
302	28325	6.725	1008
302	28414	6.75	1008
302	28531	6.775	1008
302	28645	6.8	1008
302	28700	6.825	1008
302	28822	6.85	1008
302	28961	6.875	1008
302	29050	6.9	1008
302	29191	6.925	1008
302	29280	6.95	1008
302	29334	6.975	1008
302	29413	7	1008
302	29526	7.025	1008
302	29640	7.05	1008
302	29754	7.075	1008
302	29893	7.1	1008
302	29982	7.125	1008
302	30036	7.15	1008
302	30090	7.175	1008
302	30144	7.2	1008
302	30257	7.225	1008
302	30396	7.25	1008
302	30485	7.275	1008
302	30623	7.3	1008
302	30712	7.325	1008
302	30766	7.35	1008
302	30904	7.375	1008
302	30993	7.4	1008
302	31049	7.425	1008
302	31163	7.45	1008
302	31277	7.475	1008
302	31391	7.5	1008
302	31446	7.525	1008
302	31559	7.55	1008
302	31614	7.575	1008
302	31727	7.6	1008
302	31782	7.625	1008
302	31895	7.65	1008
302	32009	7.675	1008
302	32148	7.7	1008
302	32237	7.725	1008
302	32375	7.75	1008
302	32464	7.775	1008
302	32602	7.8	1008
302	32691	7.825	1008
302	32829	7.85	1008
302	32918	7.875	1008
302	33056	7.9	1008
302	33145	7.925	1008
302	33258	7.95	1008
302	33397	7.975	1008
302	33508	8	1008
302	33621	8.025	1008
302	33760	8.05	1008
302	33849	8.075	1008
302	33987	8.1	1008
302	34076	8.125	1008
302	34214	8.15	1008
302	34303	8.175	1008
302	34416	8.2	1008
302	34555	8.225	1008
302	34644	8.25	1008
302	34698	8.275	1008
302	34836	8.3	1008
302	34925	8.325	1008
302	34979	8.35	1008
302	35092	8.375	1008
302	35206	8.4	1008
302	35345	8.425	1008
302	35434	8.45	1008
302	35488	8.475	1008
302	35601	8.5	1008
302	35715	8.525	1008
302	35854	8.55	1008
302	35943	8.575	1008
302	36056	8.6	1008
302	36111	8.625	1008
302	36224	8.65	1008
302	36363	8.675	1008
302	36452	8.7	1008
302	36565	8.725	1008
302	36704	8.75	1008
302	36793	8.775	1008
302	36847	8.8	1008
302	36960	8.825	1008
302	37074	8.85	1008
302	37129	8.875	1008
302	37183	8.9	1008
302	37296	8.925	1008
302	37351	8.95	1008
302	37489	8.975	1008
302	37600	9	1008
302	37738	9.025	1008
302	37827	9.05	1008
302	37940	9.075	1008
302	38054	9.1	1008
302	38193	9.125	1008
302	38282	9.15	1008
302	38420	9.175	1008
302	38509	9.2	1008
302	38622	9.225	1008
302	38761	9.25	1008
302	38850	9.275	1008
302	38988	9.3	1008
302	39077	9.325	1008
302	39190	9.35	1008
302	39247	9.375	1008
302	39385	9.4	1008
302	39475	9.425	1008
302	39588	9.45	1008
302	39702	9.475	1008
302	39816	9.5	1008
302	39955	9.525	1008
302	40044	9.55	1008
302	40182	9.575	1008
302	40331	9.6	1008
302	40445	9.625	1008
302	40584	9.65	1008
302	40673	9.675	1008
302	40727	9.7	1008
302	40865	9.725	1008
302	40954	9.75	1008
302	41067	9.775	1008
302	41122	9.8	1008
302	41235	9.825	1008
302	41290	9.85	1008
302	41403	9.875	1008
302	41458	9.9	1008
302	41512	9.925	1008
302	41625	9.95	1008
302	41680	9.975	1008
302	41840	10	1008
302	41929	10.025	1008
302	42042	10.05	1008
302	42097	10.075	1008
302	42235	10.1	1008
302	42324	10.125	1008
302	42462	10.15	1008
302	42551	10.175	1008
302	42605	10.2	1008
302	42718	10.225	1008
302	42832	10.25	1008
302	42946	10.275	1008
302	43001	10.3	1008
302	43055	10.325	1008
302	43109	10.35	1008
302	43247	10.375	1008
302	43336	10.4	1008
302	43474	10.425	1008
302	43563	10.45	1008
302	43617	10.475	1008
302	43730	10.5	1008
302	43869	10.525	1008
302	43958	10.55	1008
302	44096	10.575	1008
302	44185	10.6	1008
302	44298	10.625	1008
302	44353	10.65	1008
302	44466	10.675	1008
302	44521	10.7	1008
302	44575	10.725	1008
302	44688	10.75	1008
302	44802	10.775	1008
302	44857	10.8	1008
302	44911	10.825	1008
302	45049	10.85	1008
302	45138	10.875	1008
302	45192	10.9	1008
302	45305	10.925	1008
302	45444	10.95	1008
302	45533	10.975	1008
302	45609	11	1008
302	45663	11.025	1008
302	45801	11.05	1008
302	45890	11.075	1008
302	46003	11.1	1008
302	46142	11.125	1008
302	46531	11.15	1008
302	46885	11.175	1008
302	46888	11.2	1008
302	46891	11.225	1008
302	46894	11.25	1008
302	46897	11.275	1008
302	46900	11.3	1008
302	46903	11.325	1008
302	46906	11.35	1008
302	46909	11.375	1008
302	46912	11.4	1008
302	46915	11.425	1008
302	46918	11.45	1008
302	46981	11.475	1008
302	48140	11.5	1008
302	48143	11.525	1008
302	48146	11.55	1008
302	48149	11.575	1008
302	48152	11.6	1008
302	48155	11.625	1008
302	48158	11.65	1008
302	48161	11.675	1008
302	48164	11.7	1008
302	48167	11.725	1008
302	48170	11.75	1008
302	48173	11.775	1008
302	48176	11.8	1008
302	48179	11.825	1008
302	48182	11.85	1008
302	48185	11.875	1008
302	48188	11.9	1008
302	48191	11.925	1008
302	48195	11.95	1008
302	49886	11.975	1008
302	50156	12	1008
302	50349	12.025	1008
302	50591	12.05	1008
302	50783	12.075	1008
302	50999	12.1	1008
302	51216	12.125	1008
302	51433	12.15	1008
302	51597	12.175	1008
302	51759	12.2	1008
302	51945	12.225	1008
302	52161	12.25	1008
302	52435	12.275	1008
302	52655	12.3	1008
302	52771	12.325	1008
302	52904	12.35	1008
302	53056	12.375	1008
302	53164	12.4	1008
302	53298	12.425	1008
302	53387	12.45	1008
302	53520	12.475	1008
302	53609	12.5	1008
302	53717	12.525	1008
302	53851	12.55	1008
302	53940	12.575	1008
302	54073	12.6	1008
302	54162	12.625	1008
302	54295	12.65	1008
302	54384	12.675	1008
302	54517	12.7	1008
302	54606	12.725	1008
302	54739	12.75	1008
302	54828	12.775	1008
302	54961	12.8	1008
302	55050	12.825	1008
302	55184	12.85	1008
302	55273	12.875	1008
302	55406	12.9	1008
302	55495	12.925	1008
302	55603	12.95	1008
302	55737	12.975	1008
302	55911	13	1008
302	56082	13.025	1008
302	56196	13.05	1008
302	56329	13.075	1008
302	56418	13.1	1008
302	56552	13.125	1008
302	56641	13.15	1008
302	56777	13.175	1008
302	56866	13.2	1008
302	56999	13.225	1008
302	57088	13.25	1008
302	57142	13.275	1008
302	57275	13.3	1008
302	57364	13.325	1008
302	57497	13.35	1008
302	57646	13.375	1008
302	57779	13.4	1008
302	57868	13.425	1008
302	58001	13.45	1008
302	58095	13.475	1008
302	58260	13.5	1008
302	58349	13.525	1008
302	58482	13.55	1008
302	58634	13.575	1008
302	58767	13.6	1008
302	58856	13.625	1008
302	58989	13.65	1008
302	59078	13.675	1008
302	59186	13.7	1008
302	59320	13.725	1008
302	59409	13.75	1008
302	59542	13.775	1008
302	59631	13.8	1008
302	59739	13.825	1008
302	59873	13.85	1008
302	59962	13.875	1008
302	60095	13.9	1008
302	60184	13.925	1008
302	60317	13.95	1008
302	60556	13.975	1008
302	60711	14	1008
302	60800	14.025	1008
302	60933	14.05	1008
302	61022	14.075	1008
302	61155	14.1	1008
302	61244	14.125	1008
302	61377	14.15	1008
302	61529	14.175	1008
302	61637	14.2	1008
302	61771	14.225	1008
302	61860	14.25	1008
302	61993	14.275	1008
302	62145	14.3	1008
302	62278	14.325	1008
302	62367	14.35	1008
302	62500	14.375	1008
302	62589	14.4	1008
302	62722	14.425	1008
302	62871	14.45	1008
302	62979	14.475	1008
302	63113	14.5	1008
302	63202	14.525	1008
302	63335	14.55	1008
302	63424	14.575	1008
302	63557	14.6	1008
302	63709	14.625	1008
302	63842	14.65	1008
302	63931	14.675	1008
302	64064	14.7	1008
302	64216	14.725	1008
302	64349	14.75	1008
302	64438	14.775	1008
302	64571	14.8	1008
302	64660	14.825	1008
302	64793	14.85	1008
302	64882	14.875	1008
302	65015	14.9	1008
302	65104	14.925	1008
[...]
445	199269	44.042697729693	3
445	199321	44.050995729693	1
445	199491	44.092417729693	3
445	199543	44.100715729693	1
445	199822	44.167837729693	3
445	199874	44.176135729693	1
445	200044	44.218037729693	3
445	200096	44.226335729693	1
445	200266	44.267417729693	3
445	200318	44.275715729693	1
445	200488	44.317737729693	3
445	200540	44.326035729693	1
445	200710	44.367657729693	3
445	200762	44.375955729693	1
445	200932	44.417697729693	3
445	200984	44.425995729693	1
445	201154	44.467717729693	3
445	201206	44.476015729693	1
445	201376	44.517497729693	3
445	201428	44.525795729693	1
445	201598	44.567677729693	3
445	201650	44.575975729693	1
445	201820	44.617637729693	3
445	201872	44.625935729693	1
445	202042	44.667217729693	3
445	202094	44.675515729693	1
445	202264	44.717537729693	3
445	202316	44.725835729693	1
445	202486	44.767397729693	3
445	202538	44.775695729693	1
445	202817	44.842137729693	3
445	202869	44.850435729693	1
445	203039	44.893037729693	3
445	203091	44.901335729693	1
445	203133	44.901356697948	3
445	203186	44.909654697948	1
445	203321	44.942757729693	3
445	203373	44.951055729693	1
445	203543	44.992397729693	3
445	203617	45.000695729693	1
445	203896	45.067857729693	3
445	203948	45.076155729693	1
445	204227	45.142417729693	3
445	204279	45.150715729693	1
445	204449	45.192617729693	3
445	204501	45.200915729693	1
445	204671	45.242137729693	3
445	204723	45.250435729693	1
445	204893	45.292297729693	3
445	204945	45.300595729693	1
445	205224	45.367257729693	3
445	205276	45.375555729693	1
445	205446	45.417617729693	3
445	205498	45.425915729693	1
445	205777	45.492477729693	3
445	205829	45.500775729693	1
445	206108	45.567797729693	3
445	206160	45.576095729693	1
445	206330	45.617277729693	3
445	206382	45.625575729693	1
445	206552	45.667237729693	3
445	206604	45.675535729693	1
445	206778	45.717237729693	3
445	206830	45.725535729693	1
445	207000	45.767217729693	3
445	207052	45.775515729693	1
445	207222	45.817717729693	3
445	207274	45.826015729693	1
445	207444	45.867557729693	3
445	207496	45.875855729693	1
445	207666	45.917897729693	3
445	207718	45.926195729693	1
445	207888	45.967577729693	3
445	207940	45.975875729693	1
445	208132	46.017577729693	3
445	208184	46.025875729693	1
445	208354	46.067317729693	3
445	208406	46.075615729693	1
445	208576	46.117357729693	3
445	208628	46.125655729693	1
445	208798	46.167437729693	3
445	208850	46.175735729693	1
445	209020	46.217917729693	3
445	209072	46.226215729693	1
445	209242	46.267397729693	3
445	209294	46.275695729693	1
445	209464	46.317897729693	3
445	209516	46.326195729693	1
445	209686	46.367537729693	3
445	209738	46.375835729693	1
445	210017	46.442777729693	3
445	210069	46.451075729693	1
445	210348	46.517157729693	3
445	210400	46.525455729693	1
445	210570	46.567637729693	3
445	210622	46.575935729693	1
445	210664	46.576536697948	3
445	210717	46.584834697948	1
445	210852	46.617597729693	3
445	210904	46.625895729693	1
445	211065	46.666837729693	3
445	211103	46.675135729693	1
445	211145	46.675256697948	3
445	211198	46.683554697948	1
445	211359	46.717457729693	3
445	211411	46.725755729693	1
445	211581	46.768177729693	3
445	211633	46.776475729693	1
445	211912	46.841997729693	3
445	211941	46.850295729693	1
445	212006	46.850696697948	3
445	212062	46.858994697948	1
445	212197	46.892957729693	3
445	212249	46.901255729693	1
445	212292	46.901716697948	3
445	212345	46.910014697948	1
445	212480	46.942157729693	3
445	212532	46.950455729693	1
445	212833	47.017417729693	3
445	212885	47.025715729693	1
445	213055	47.066937729693	3
445	213107	47.075235729693	1
445	213495	47.168137729693	3
445	213547	47.176435729693	1
445	213717	47.218017729693	3
445	213769	47.226315729693	1
445	214048	47.292417729693	3
445	214100	47.300715729693	1
445	214270	47.341957729693	3
445	214322	47.350255729693	1
445	214492	47.392517729693	3
445	214544	47.400815729693	1
445	214714	47.442877729693	3
445	214766	47.451175729693	1
445	214936	47.492617729693	3
445	214988	47.500915729693	1
445	215030	47.501216697948	3
445	215083	47.509514697948	1
445	215218	47.543037729693	3
445	215270	47.551335729693	1
445	215440	47.592517729693	3
445	215492	47.600815729693	1
445	215662	47.642457729693	3
445	215714	47.650755729693	1
445	215886	47.692697729693	3
445	215938	47.700995729693	1
445	216109	47.742257729693	3
445	216161	47.750555729693	1
445	216331	47.792217729693	3
445	216360	47.800515729693	1
445	216425	47.800936697948	3
445	216481	47.809234697948	1
445	216616	47.842737729693	3
445	216668	47.851035729693	1
445	216838	47.892737729693	3
445	216890	47.901035729693	1
445	217060	47.942317729693	3
445	217112	47.950615729693	1
445	217282	47.992137729693	3
445	217356	48.000435729693	1
445	217526	48.042457729693	3
445	217578	48.050755729693	1
445	217748	48.092497729693	3
445	217800	48.100795729693	1
445	218079	48.167197729693	3
445	218131	48.175495729693	1
445	218301	48.217417729693	3
445	218353	48.225715729693	1
445	218523	48.267957729693	3
445	218575	48.276255729693	1
445	218617	48.276756697948	3
445	218670	48.285054697948	1
445	218805	48.317257729693	3
445	218857	48.325555729693	1
445	219027	48.367357729693	3
445	219079	48.375655729693	1
445	219249	48.417177729693	3
445	219301	48.425475729693	1
445	219471	48.467637729693	3
445	219523	48.475935729693	1
445	219802	48.542457729693	3
445	219854	48.550755729693	1
445	220024	48.592337729693	3
445	220076	48.600635729693	1
445	220355	48.667817729693	3
445	220407	48.676115729693	1
445	220577	48.717237729693	3
445	220629	48.725535729693	1
445	220671	48.726056697948	3
445	220724	48.734354697948	1
445	220859	48.767337729693	3
445	220911	48.775635729693	1
445	221081	48.816917729693	3
445	221133	48.825215729693	1
445	221303	48.866837729693	3
445	221332	48.875135729693	1
445	221374	48.875216697948	3
445	221427	48.883514697948	1
445	221589	48.917497729693	3
445	221641	48.925795729693	1
445	221920	48.992217729693	3
445	221994	49.000515729693	1
445	222164	49.042497729693	3
445	222216	49.050795729693	1
445	222386	49.092157729693	3
445	222438	49.100455729693	1
445	222608	49.142377729693	3
445	222660	49.150675729693	1
445	222830	49.192117729693	3
445	222882	49.200415729693	1
445	223052	49.243217729693	3
445	223104	49.251515729693	1
445	223383	49.317557729693	3
445	223435	49.325855729693	1
445	223605	49.367357729693	3
445	223657	49.375655729693	1
445	223827	49.417697729693	3
445	223879	49.425995729693	1
445	224049	49.466897729693	3
445	224078	49.475195729693	1
445	224120	49.475276697948	3
445	224173	49.483574697948	1
445	224334	49.517437729693	3
445	224386	49.525735729693	1
445	224556	49.567217729693	3
445	224608	49.575515729693	1
445	224650	49.575876697948	3
445	224703	49.584174697948	1
445	224948	49.642257729693	3
445	225001	49.650555729693	1
445	225172	49.692477729693	3
445	225224	49.700775729693	1
445	225385	49.742157729693	3
445	225446	49.750455729693	1
445	225616	49.792237729693	3
445	225668	49.800535729693	1
445	225838	49.842737729693	3
445	225890	49.851035729693	1
445	226060	49.892237729693	3
445	226112	49.900535729693	1
445	226391	49.967637729693	3
445	226443	49.975935729693	1
445	226635	50.017237729693	3
445	226687	50.025535729693	1
445	226857	50.067597729693	3
445	226909	50.075895729693	1
445	227079	50.117477729693	3
445	227131	50.125775729693	1
445	227301	50.167057729693	3
445	227353	50.175355729693	1
445	227523	50.217637729693	3
445	227575	50.225935729693	1
445	227745	50.267557729693	3
445	227797	50.275855729693	1
445	227967	50.317597729693	3
445	228019	50.325895729693	1
445	228189	50.367817729693	3
445	228241	50.376115729693	1
445	228411	50.417357729693	3
445	228463	50.425655729693	1
445	228633	50.467337729693	3
445	228685	50.475635729693	1
445	228855	50.516937729693	3
445	228907	50.525235729693	1
445	229185	50.617837729693	3
445	229237	50.626135729693	1
445	229407	50.667577729693	3
445	229459	50.675875729693	1
445	229501	50.676076697948	3
445	229554	50.684374697948	1
445	229798	50.742757729693	3
445	229850	50.751055729693	1
445	230020	50.792397729693	3
445	230072	50.800695729693	1
445	230242	50.842357729693	3
445	230294	50.850655729693	1
445	230465	50.892457729693	3
445	230517	50.900755729693	1
445	230687	50.942217729693	3
445	230739	50.950515729693	1
445	230781	50.950556697948	3
445	230834	50.958854697948	1
445	230969	50.992077729693	3
445	231020	51.000375729693	1
445	231062	51.000416697948	3
445	231115	51.008714697948	1
445	231494	51.092157729693	3
445	231546	51.100455729693	1
445	231716	51.142917729693	3
445	231768	51.151215729693	1
445	232047	51.218097729693	3
445	232099	51.226395729693	1
445	232269	51.267217729693	3
445	232321	51.275515729693	1
445	232491	51.317297729693	3
445	232543	51.325595729693	1
445	232767	51.392697729693	3
445	232819	51.400995729693	1
445	232989	51.442417729693	3
445	233041	51.450715729693	1
445	233211	51.492037729693	3
445	233263	51.500335729693	1
445	233542	51.567977729693	3
445	233594	51.576275729693	1
445	233765	51.617017729693	3
445	233795	51.625315729693	1
445	233860	51.625876697948	3
445	233916	51.634174697948	1
445	234051	51.667737729693	3
445	234103	51.676035729693	1
445	234274	51.717557729693	3
445	234326	51.725855729693	1
445	234368	51.725976697948	3
445	234421	51.734274697948	1
445	234665	51.793057729693	3
445	234717	51.801355729693	1
445	234887	51.842137729693	3
445	234939	51.850435729693	1
445	234981	51.850956697948	3
445	235034	51.859254697948	1
445	235278	51.917537729693	3
445	235330	51.925835729693	1
445	235500	51.967317729693	3
445	235552	51.975615729693	1
445	235744	52.016997729693	3
445	235796	52.025295729693	1
445	235966	52.067657729693	3
445	236018	52.075955729693	1
445	236188	52.117497729693	3
445	236240	52.125795729693	1
445	236519	52.192157729693	3
445	236548	52.200455729693	1
445	236613	52.201056697948	3
445	236669	52.209354697948	1
445	236804	52.242377729693	3
445	236856	52.250675729693	1
445	237026	52.292417729693	3
445	237078	52.300715729693	1
445	237248	52.342857729693	3
445	237300	52.351155729693	1
445	237342	52.351236697948	3
445	237395	52.359534697948	1
445	237530	52.393037729693	3
445	237582	52.401335729693	1
445	237752	52.442657729693	3
445	237804	52.450955729693	1
445	237846	52.451376697948	3
445	237899	52.459674697948	1
445	238252	52.542657729693	3
445	238304	52.550955729693	1
445	238474	52.593177729693	3
445	238526	52.601475729693	1
445	238906	52.692297729693	3
445	238967	52.700595729693	1
445	239137	52.742837729693	3
445	239189	52.751135729693	1
445	239468	52.818177729693	3
445	239520	52.826475729693	1
445	239562	52.826576697948	3
445	239615	52.834874697948	1
445	239750	52.868077729693	3
445	239802	52.876375729693	1
445	240081	52.942857729693	3
445	240133	52.951155729693	1
445	240303	52.992857729693	3
445	240377	53.001155729693	1
445	240547	53.042297729693	3
445	240599	53.050595729693	1
445	240769	53.092077729693	3
445	240798	53.100375729693	1
445	240863	53.100916697948	3
445	240919	53.109214697948	1
445	241054	53.142697729693	3
445	241106	53.150995729693	1
445	241276	53.192657729693	3
445	241328	53.200955729693	1
445	241498	53.242457729693	3
445	241550	53.250755729693	1
445	241720	53.292557729693	3
445	241772	53.300855729693	1
445	242105	53.392337729693	3
445	242157	53.400635729693	1
445	242545	53.492297729693	3
445	242597	53.500595729693	1
445	242767	53.542697729693	3
445	242819	53.550995729693	1
445	243264	53.667717729693	3
445	243316	53.676015729693	1
445	243358	53.676536697948	3
445	243411	53.684834697948	1
445	243546	53.716977729693	3
445	243575	53.725275729693	1
445	243640	53.725416697948	3
445	243696	53.733714697948	1
445	243940	53.792577729693	3
445	243992	53.800875729693	1
445	244271	53.867157729693	3
445	244323	53.875455729693	1
445	244493	53.917757729693	3
445	244545	53.926055729693	1
445	244715	53.967977729693	3
445	244767	53.976275729693	1
445	245122	54.067537729693	3
445	245174	54.075835729693	1
445	245344	54.117497729693	3
445	245396	54.125795729693	1
445	245566	54.167317729693	3
445	245618	54.175615729693	1
445	245788	54.217937729693	3
445	245840	54.226235729693	1
445	246010	54.267517729693	3
445	246062	54.275815729693	1
445	246341	54.342437729693	3
445	246393	54.350735729693	1
445	246563	54.392617729693	3
445	246615	54.400915729693	1
445	246785	54.442177729693	3
445	246814	54.450475729693	1
445	246879	54.450556697948	3
445	246936	54.458854697948	1
445	247180	54.517837729693	3
445	247232	54.526135729693	1
445	247402	54.567297729693	3
445	247454	54.575595729693	1
445	247624	54.617277729693	3
445	247676	54.625575729693	1
445	247955	54.692457729693	3
445	248007	54.700755729693	1
445	248395	54.792837729693	3
445	248447	54.801135729693	1
445	248617	54.842217729693	3
445	248669	54.850515729693	1
445	248839	54.892137729693	3
445	248891	54.900435729693	1
445	249170	54.967457729693	3
445	249222	54.975755729693	1
445	249264	54.975956697948	3
445	249317	54.984254697948	1
445	249474	55.017757729693	3
445	249526	55.026055729693	1
445	249696	55.067317729693	3
445	249748	55.075615729693	1
445	249918	55.117837729693	3
445	249970	55.126135729693	1
445	250140	55.167277729693	3
445	250192	55.175575729693	1
445	250362	55.217077729693	3
445	250391	55.225375729693	1
445	250433	55.225516697948	3
445	250486	55.233814697948	1
445	250756	55.292277729693	3
445	250808	55.300575729693	1
445	250978	55.342237729693	3
445	251030	55.350535729693	1
445	251200	55.392677729693	3
445	251252	55.400975729693	1
445	251476	55.467417729693	3
445	251528	55.475715729693	1
445	251698	55.517557729693	3
445	251750	55.525855729693	1
445	251921	55.567957729693	3
445	251974	55.576255729693	1
445	252144	55.617557729693	3
445	252196	55.625855729693	1
445	252238	55.626316697948	3
445	252291	55.634614697948	1
445	252427	55.667177729693	3
445	252479	55.675475729693	1
445	252649	55.717397729693	3
445	252701	55.725695729693	1
445	252871	55.767397729693	3
445	252923	55.775695729693	1
445	253093	55.816977729693	3
445	253145	55.825275729693	1
445	253315	55.867537729693	3
445	253367	55.875835729693	1
445	253537	55.917237729693	3
445	253589	55.925535729693	1
445	253759	55.967337729693	3
445	253811	55.975635729693	1
445	254057	56.042277729693	3
445	254109	56.050575729693	1
445	254279	56.092997729693	3
445	254331	56.101295729693	1
445	254501	56.143117729693	3
445	254553	56.151415729693	1
445	254723	56.192597729693	3
445	254775	56.200895729693	1
445	254945	56.242377729693	3
445	254997	56.250675729693	1
445	255167	56.292277729693	3
445	255219	56.300575729693	1
445	255261	56.300876697948	3
445	255314	56.309174697948	1
445	255452	56.342017729693	3
445	255481	56.350315729693	1
445	255546	56.350896697948	3
445	255602	56.359194697948	1
445	255737	56.392057729693	3
445	255789	56.400355729693	1
445	255959	56.442997729693	3
445	256012	56.451295729693	1
445	256182	56.492737729693	3
445	256234	56.501035729693	1
445	256504	56.567057729693	3
445	256565	56.575355729693	1
445	256607	56.575856697948	3
445	256660	56.584154697948	1
445	256795	56.616957729693	3
445	256824	56.625255729693	1
445	256889	56.625496697948	3
445	256945	56.633794697948	1
445	257080	56.667637729693	3
445	257132	56.675935729693	1
445	257402	56.742277729693	3
445	257463	56.750575729693	1
445	257505	56.751096697948	3
445	257558	56.759394697948	1
445	257693	56.791877729693	3
445	257722	56.800175729693	1
445	257764	56.800396697948	3
445	257817	56.808694697948	1
445	257978	56.842817729693	3
445	258030	56.851115729693	1
445	258200	56.892897729693	3
445	258252	56.901195729693	1
445	258422	56.942257729693	3
445	258474	56.950555729693	1
445	258644	56.992177729693	3
445	258718	57.000475729693	1
445	258760	57.000696697948	3
445	258813	57.008994697948	1
445	258948	57.042577729693	3
445	259000	57.050875729693	1
445	259170	57.092917729693	3
445	259222	57.101215729693	1
445	259392	57.142497729693	3
445	259444	57.150795729693	1
445	259614	57.192537729693	3
445	259666	57.200835729693	1
445	259836	57.242977729693	3
445	259888	57.251275729693	1
445	260058	57.292897729693	3
445	260110	57.301195729693	1
445	260280	57.342397729693	3
445	260332	57.350695729693	1
445	260502	57.392757729693	3
445	260554	57.401055729693	1
445	260724	57.442617729693	3
445	260776	57.450915729693	1
445	260946	57.491957729693	3
445	260975	57.500255729693	1
445	261040	57.500876697948	3
445	261097	57.509174697948	1
445	261232	57.542177729693	3
445	261285	57.550475729693	1
445	261455	57.592677729693	3
445	261507	57.600975729693	1
445	261677	57.642337729693	3
445	261729	57.650635729693	1
445	261900	57.692517729693	3
445	261952	57.700815729693	1
445	262122	57.742177729693	3
445	262151	57.750475729693	1
445	262216	57.750976697948	3
445	262272	57.759274697948	1
445	262407	57.792597729693	3
445	262459	57.800895729693	1
445	262501	57.801216697948	3
445	262554	57.809514697948	1
445	262689	57.842557729693	3
445	262741	57.850855729693	1
445	262911	57.891837729693	3
445	262940	57.900135729693	1
445	263005	57.900256697948	3
445	263061	57.908554697948	1
445	263196	57.943077729693	3
445	263248	57.951375729693	1
445	263549	58.017677729693	3
445	263601	58.025975729693	1
445	263771	58.067337729693	3
445	263823	58.075635729693	1
445	263865	58.076256697948	3
445	263918	58.084554697948	1
445	264044	58.117197729693	3
445	264082	58.125495729693	1
445	264147	58.125936697948	3
445	264203	58.134234697948	1
445	264338	58.167257729693	3
445	264390	58.175555729693	1
445	264560	58.217377729693	3
445	264612	58.225675729693	1
445	264782	58.267677729693	3
445	264834	58.275975729693	1
445	265004	58.317077729693	3
445	265033	58.325375729693	1
445	265075	58.325496697948	3
445	265128	58.333794697948	1
445	265399	58.391957729693	3
445	265428	58.400255729693	1
445	265493	58.400396697948	3
445	265549	58.408694697948	1
445	265684	58.442437729693	3
445	265736	58.450735729693	1
445	265906	58.493097729693	3
445	265958	58.501395729693	1
445	266128	58.542557729693	3
445	266180	58.550855729693	1
445	266459	58.617857729693	3
445	266511	58.626155729693	1
445	266790	58.692237729693	3
445	266842	58.700535729693	1
445	267012	58.742637729693	3
445	267064	58.750935729693	1
445	267106	58.751156697948	3
445	267159	58.759454697948	1
445	267294	58.792177729693	3
445	267346	58.800475729693	1
445	267516	58.842857729693	3
445	267568	58.851155729693	1
445	267738	58.892337729693	3
445	267790	58.900635729693	1
445	267960	58.943097729693	3
445	268012	58.951395729693	1
445	268313	59.017737729693	3
445	268365	59.026035729693	1
445	268407	59.026136697948	3
445	268460	59.034434697948	1
445	268704	59.092817729693	3
445	268756	59.101115729693	1
445	268926	59.142597729693	3
445	268978	59.150895729693	1
445	269148	59.192917729693	3
445	269200	59.201215729693	1
445	269370	59.242457729693	3
445	269422	59.250755729693	1
445	269592	59.292597729693	3
445	269644	59.300895729693	1
445	269814	59.342517729693	3
445	269866	59.350815729693	1
445	270036	59.392037729693	3
445	270065	59.400335729693	1
445	270130	59.400516697948	3
445	270186	59.408814697948	1
445	270321	59.442557729693	3
445	270373	59.450855729693	1
445	270415	59.451036697948	3
445	270468	59.459334697948	1
445	270604	59.492717729693	3
445	270656	59.501015729693	1
445	270827	59.542897729693	3
445	270879	59.551195729693	1
445	271049	59.592817729693	3
445	271101	59.601115729693	1
445	271272	59.642257729693	3
445	271324	59.650555729693	1
445	271494	59.692537729693	3
445	271546	59.700835729693	1
445	271588	59.701456697948	3
445	271641	59.709754697948	1
445	271776	59.742677729693	3
445	271828	59.750975729693	1
445	271998	59.792657729693	3
445	272050	59.800955729693	1
445	272329	59.867197729693	3
445	272358	59.875495729693	1
445	272423	59.875756697948	3
445	272479	59.884054697948	1
445	272723	59.942957729693	3
445	272775	59.951255729693	1
445	272945	59.993017729693	3
446	606	0.349950953849	1
446	607	0.349950953849	2
446	632	0.350440953849	1
446	632	0.350440953849	0
446	2091	0.832381759394	1
446	2092	0.832381759394	2
446	2151	0.832871759394	1
446	2151	0.832871759394	0
446	4058	1.476500678058	1
446	4059	1.476500678058	2
446	4083	1.476990678058	1
446	4083	1.476990678058	0
446	47216	11.47969996892	1
446	47217	11.47969996892	2
446	47266	11.48018996892	1
446	47266	11.48018996892	0
446	48963	11.958751841466	1
446	48964	11.958751841466	2
446	48986	11.959241841466	1
446	48986	11.959241841466	0
