version 2
run Host20_10pps-0-20161122-11:52:50-872
attr configname Host20_10pps
attr datetime 20161122-11:52:50
attr experiment Host20_10pps
attr inifile omnetpp_20.ini
attr iterationvars ""
attr iterationvars2 $repetition=0
attr measurement ""
attr network arb_png.car_host_20
attr processid 872
attr repetition 0
attr replication #0
attr resultdir results
attr runnumber 0
attr seedset 0
param **.aodv.activeRouteTimeout 2s
param *.configurator.addStaticRoutes false
param *.configurator.config "xml(\"<config><interface hosts='**' address='10.0.0.x' netmask='255.255.255.0'/><autoroute metric='errorRate'/></config>\")"
param *.configurator.optimizeRoutes true
param *.host*.**.bitrate 1Mbps
param *.host*.networkLayer.arpType "\"GlobalARP\""
param *.host*.routingTable.netmaskRoutes "\"\""
param *.host*.wlan[0].mac.maxQueueSize 15
param *.host*.wlan[0].mac.useAck false
param *.host*.wlan[0].macType "\"CsmaCaMac\""
param *.host*.wlan[0].radio.bandwidth 2MHz
param *.host*.wlan[0].radio.carrierFrequency 2GHz
param *.host*.wlan[0].radio.displayCommunicationRange true
param *.host*.wlan[0].radio.displayInterferenceRange true
param *.host*.wlan[0].radio.receiver.energyDetection -85dBm
param *.host*.wlan[0].radio.receiver.ignoreInterference false
param *.host*.wlan[0].radio.receiver.sensitivity -85dBm
param *.host*.wlan[0].radio.receiver.snirThreshold 4dB
param *.host*.wlan[0].radio.transmitter.communicationRange 200m
param *.host*.wlan[0].radio.transmitter.headerBitLength 0b
param *.host*.wlan[0].radio.transmitter.power 1.4mW
param *.host*.wlan[0].radio.transmitter.preambleDuration 10us
param *.host*.wlan[0].radioType "\"APSKScalarRadio\""
param *.host*.wlan[0].typename "\"WirelessNic\""
param *.hostA.numUdpApps 1
param *.hostA.udpApp[0].destAddresses "\"hostD\""
param *.hostA.udpApp[0].destPort 5000
param *.hostA.udpApp[0].messageLength 1000B
param *.hostA.udpApp[0].packetName "\"Data\""
param *.hostA.udpApp[0].sendInterval 100ms
param *.hostA.udpApp[0].typename "\"UDPBasicApp\""
param *.hostD.numUdpApps 1
param *.hostD.udpApp[0].localPort 5000
param *.hostD.udpApp[0].typename "\"UDPSink\""
param *.hostType "\"AODVRouter\""
param *.mediumType "\"APSKScalarRadioMedium\""
param *.radioMedium.backgroundNoise.power -90dBm
param *.radioMedium.mediumLimitCache.carrierFrequency 2GHz
param *.visualizer.dataLinkVisualizer.packetNameFilter "\"AODV*\""
param *.visualizer.mediumVisualizer.signalPropagationUpdateInterval 100ns
param *.visualizer.mobilityVisualizer.displayMovementTrail true
param *.visualizer.networkRouteVisualizer.packetNameFilter "\"UDPData*\""
param *.visualizer.sceneVisualizer.descriptionFigure "\"title\""

vector 12  car_host_20.hostA.wlan[0].radio  radioMode:vector  ETV
attr interpolationmode  sample-hold
attr source  radioModeChanged
attr title  "Radio mode, vector"
vector 26  car_host_20.hostD.wlan[0].radio  radioMode:vector  ETV
attr interpolationmode  sample-hold
attr source  radioModeChanged
attr title  "Radio mode, vector"
vector 32  car_host_20.hostB.wlan[0].radio  radioMode:vector  ETV
attr interpolationmode  sample-hold
attr source  radioModeChanged
attr title  "Radio mode, vector"
vector 38  car_host_20.hostC.wlan[0].radio  radioMode:vector  ETV
attr interpolationmode  sample-hold
attr source  radioModeChanged
attr title  "Radio mode, vector"
vector 44  car_host_20.hostB1.wlan[0].radio  radioMode:vector  ETV
attr interpolationmode  sample-hold
attr source  radioModeChanged
attr title  "Radio mode, vector"
vector 50  car_host_20.hostB2.wlan[0].radio  radioMode:vector  ETV
attr interpolationmode  sample-hold
attr source  radioModeChanged
attr title  "Radio mode, vector"
vector 56  car_host_20.hostB3.wlan[0].radio  radioMode:vector  ETV
attr interpolationmode  sample-hold
attr source  radioModeChanged
attr title  "Radio mode, vector"
vector 62  car_host_20.hostB4.wlan[0].radio  radioMode:vector  ETV
attr interpolationmode  sample-hold
attr source  radioModeChanged
attr title  "Radio mode, vector"
vector 68  car_host_20.hostC1.wlan[0].radio  radioMode:vector  ETV
attr interpolationmode  sample-hold
attr source  radioModeChanged
attr title  "Radio mode, vector"
vector 74  car_host_20.hostC2.wlan[0].radio  radioMode:vector  ETV
attr interpolationmode  sample-hold
attr source  radioModeChanged
attr title  "Radio mode, vector"
vector 80  car_host_20.hostC3.wlan[0].radio  radioMode:vector  ETV
attr interpolationmode  sample-hold
attr source  radioModeChanged
attr title  "Radio mode, vector"
vector 86  car_host_20.hostC4.wlan[0].radio  radioMode:vector  ETV
attr interpolationmode  sample-hold
attr source  radioModeChanged
attr title  "Radio mode, vector"
vector 92  car_host_20.hostC5.wlan[0].radio  radioMode:vector  ETV
attr interpolationmode  sample-hold
attr source  radioModeChanged
attr title  "Radio mode, vector"
vector 98  car_host_20.hostB5.wlan[0].radio  radioMode:vector  ETV
attr interpolationmode  sample-hold
attr source  radioModeChanged
attr title  "Radio mode, vector"
vector 104  car_host_20.hostB6.wlan[0].radio  radioMode:vector  ETV
attr interpolationmode  sample-hold
attr source  radioModeChanged
attr title  "Radio mode, vector"
vector 110  car_host_20.hostB7.wlan[0].radio  radioMode:vector  ETV
attr interpolationmode  sample-hold
attr source  radioModeChanged
attr title  "Radio mode, vector"
vector 116  car_host_20.hostB8.wlan[0].radio  radioMode:vector  ETV
attr interpolationmode  sample-hold
attr source  radioModeChanged
attr title  "Radio mode, vector"
vector 122  car_host_20.hostC6.wlan[0].radio  radioMode:vector  ETV
attr interpolationmode  sample-hold
attr source  radioModeChanged
attr title  "Radio mode, vector"
vector 128  car_host_20.hostC7.wlan[0].radio  radioMode:vector  ETV
attr interpolationmode  sample-hold
attr source  radioModeChanged
attr title  "Radio mode, vector"
vector 134  car_host_20.hostB9.wlan[0].radio  radioMode:vector  ETV
attr interpolationmode  sample-hold
attr source  radioModeChanged
attr title  "Radio mode, vector"
vector 140  car_host_20.hostC8.wlan[0].radio  radioMode:vector  ETV
attr interpolationmode  sample-hold
attr source  radioModeChanged
attr title  "Radio mode, vector"
vector 146  car_host_20.hostC9.wlan[0].radio  radioMode:vector  ETV
attr interpolationmode  sample-hold
attr source  radioModeChanged
attr title  "Radio mode, vector"
vector 13  car_host_20.hostA.wlan[0].radio  receptionState:vector  ETV
attr interpolationmode  sample-hold
attr source  receptionStateChanged
attr title  "Radio reception state, vector"
vector 27  car_host_20.hostD.wlan[0].radio  receptionState:vector  ETV
attr interpolationmode  sample-hold
attr source  receptionStateChanged
attr title  "Radio reception state, vector"
vector 33  car_host_20.hostB.wlan[0].radio  receptionState:vector  ETV
attr interpolationmode  sample-hold
attr source  receptionStateChanged
attr title  "Radio reception state, vector"
vector 39  car_host_20.hostC.wlan[0].radio  receptionState:vector  ETV
attr interpolationmode  sample-hold
attr source  receptionStateChanged
attr title  "Radio reception state, vector"
vector 45  car_host_20.hostB1.wlan[0].radio  receptionState:vector  ETV
attr interpolationmode  sample-hold
attr source  receptionStateChanged
attr title  "Radio reception state, vector"
vector 51  car_host_20.hostB2.wlan[0].radio  receptionState:vector  ETV
attr interpolationmode  sample-hold
attr source  receptionStateChanged
attr title  "Radio reception state, vector"
vector 57  car_host_20.hostB3.wlan[0].radio  receptionState:vector  ETV
attr interpolationmode  sample-hold
attr source  receptionStateChanged
attr title  "Radio reception state, vector"
vector 63  car_host_20.hostB4.wlan[0].radio  receptionState:vector  ETV
attr interpolationmode  sample-hold
attr source  receptionStateChanged
attr title  "Radio reception state, vector"
vector 69  car_host_20.hostC1.wlan[0].radio  receptionState:vector  ETV
attr interpolationmode  sample-hold
attr source  receptionStateChanged
attr title  "Radio reception state, vector"
vector 75  car_host_20.hostC2.wlan[0].radio  receptionState:vector  ETV
attr interpolationmode  sample-hold
attr source  receptionStateChanged
attr title  "Radio reception state, vector"
vector 81  car_host_20.hostC3.wlan[0].radio  receptionState:vector  ETV
attr interpolationmode  sample-hold
attr source  receptionStateChanged
attr title  "Radio reception state, vector"
vector 87  car_host_20.hostC4.wlan[0].radio  receptionState:vector  ETV
attr interpolationmode  sample-hold
attr source  receptionStateChanged
attr title  "Radio reception state, vector"
vector 93  car_host_20.hostC5.wlan[0].radio  receptionState:vector  ETV
attr interpolationmode  sample-hold
attr source  receptionStateChanged
attr title  "Radio reception state, vector"
vector 99  car_host_20.hostB5.wlan[0].radio  receptionState:vector  ETV
attr interpolationmode  sample-hold
attr source  receptionStateChanged
attr title  "Radio reception state, vector"
vector 105  car_host_20.hostB6.wlan[0].radio  receptionState:vector  ETV
attr interpolationmode  sample-hold
attr source  receptionStateChanged
attr title  "Radio reception state, vector"
vector 111  car_host_20.hostB7.wlan[0].radio  receptionState:vector  ETV
attr interpolationmode  sample-hold
attr source  receptionStateChanged
attr title  "Radio reception state, vector"
vector 117  car_host_20.hostB8.wlan[0].radio  receptionState:vector  ETV
attr interpolationmode  sample-hold
attr source  receptionStateChanged
attr title  "Radio reception state, vector"
vector 123  car_host_20.hostC6.wlan[0].radio  receptionState:vector  ETV
attr interpolationmode  sample-hold
attr source  receptionStateChanged
attr title  "Radio reception state, vector"
vector 129  car_host_20.hostC7.wlan[0].radio  receptionState:vector  ETV
attr interpolationmode  sample-hold
attr source  receptionStateChanged
attr title  "Radio reception state, vector"
vector 135  car_host_20.hostB9.wlan[0].radio  receptionState:vector  ETV
attr interpolationmode  sample-hold
attr source  receptionStateChanged
attr title  "Radio reception state, vector"
vector 141  car_host_20.hostC8.wlan[0].radio  receptionState:vector  ETV
attr interpolationmode  sample-hold
attr source  receptionStateChanged
attr title  "Radio reception state, vector"
vector 147  car_host_20.hostC9.wlan[0].radio  receptionState:vector  ETV
attr interpolationmode  sample-hold
attr source  receptionStateChanged
attr title  "Radio reception state, vector"
vector 1  car_host_20.hostA.udpApp[0]  sentPk:vector(packetBytes)  ETV
attr interpolationmode  none
attr source  sentPk
attr title  "packets sent, vector(packetBytes)"
vector 4  car_host_20.hostA.udp  sentPk:vector(packetBytes)  ETV
attr interpolationmode  none
attr source  sentPk
attr title  "packets sent, vector(packetBytes)"
vector 14  car_host_20.hostA.wlan[0].radio  transmissionState:vector  ETV
attr interpolationmode  sample-hold
attr source  transmissionStateChanged
attr title  "Radio transmission state, vector"
vector 136  car_host_20.hostB9.wlan[0].radio  transmissionState:vector  ETV
attr interpolationmode  sample-hold
attr source  transmissionStateChanged
attr title  "Radio transmission state, vector"
vector 46  car_host_20.hostB1.wlan[0].radio  transmissionState:vector  ETV
attr interpolationmode  sample-hold
attr source  transmissionStateChanged
attr title  "Radio transmission state, vector"
vector 64  car_host_20.hostB4.wlan[0].radio  transmissionState:vector  ETV
attr interpolationmode  sample-hold
attr source  transmissionStateChanged
attr title  "Radio transmission state, vector"
vector 118  car_host_20.hostB8.wlan[0].radio  transmissionState:vector  ETV
attr interpolationmode  sample-hold
attr source  transmissionStateChanged
attr title  "Radio transmission state, vector"
vector 58  car_host_20.hostB3.wlan[0].radio  transmissionState:vector  ETV
attr interpolationmode  sample-hold
attr source  transmissionStateChanged
attr title  "Radio transmission state, vector"
vector 52  car_host_20.hostB2.wlan[0].radio  transmissionState:vector  ETV
attr interpolationmode  sample-hold
attr source  transmissionStateChanged
attr title  "Radio transmission state, vector"
vector 76  car_host_20.hostC2.wlan[0].radio  transmissionState:vector  ETV
attr interpolationmode  sample-hold
attr source  transmissionStateChanged
attr title  "Radio transmission state, vector"
vector 148  car_host_20.hostC9.wlan[0].radio  transmissionState:vector  ETV
attr interpolationmode  sample-hold
attr source  transmissionStateChanged
attr title  "Radio transmission state, vector"
vector 112  car_host_20.hostB7.wlan[0].radio  transmissionState:vector  ETV
attr interpolationmode  sample-hold
attr source  transmissionStateChanged
attr title  "Radio transmission state, vector"
vector 100  car_host_20.hostB5.wlan[0].radio  transmissionState:vector  ETV
attr interpolationmode  sample-hold
attr source  transmissionStateChanged
attr title  "Radio transmission state, vector"
vector 82  car_host_20.hostC3.wlan[0].radio  transmissionState:vector  ETV
attr interpolationmode  sample-hold
attr source  transmissionStateChanged
attr title  "Radio transmission state, vector"
vector 106  car_host_20.hostB6.wlan[0].radio  transmissionState:vector  ETV
attr interpolationmode  sample-hold
attr source  transmissionStateChanged
attr title  "Radio transmission state, vector"
vector 34  car_host_20.hostB.wlan[0].radio  transmissionState:vector  ETV
attr interpolationmode  sample-hold
attr source  transmissionStateChanged
attr title  "Radio transmission state, vector"
vector 130  car_host_20.hostC7.wlan[0].radio  transmissionState:vector  ETV
attr interpolationmode  sample-hold
attr source  transmissionStateChanged
attr title  "Radio transmission state, vector"
vector 70  car_host_20.hostC1.wlan[0].radio  transmissionState:vector  ETV
attr interpolationmode  sample-hold
attr source  transmissionStateChanged
attr title  "Radio transmission state, vector"
vector 142  car_host_20.hostC8.wlan[0].radio  transmissionState:vector  ETV
attr interpolationmode  sample-hold
attr source  transmissionStateChanged
attr title  "Radio transmission state, vector"
vector 28  car_host_20.hostD.wlan[0].radio  transmissionState:vector  ETV
attr interpolationmode  sample-hold
attr source  transmissionStateChanged
attr title  "Radio transmission state, vector"
vector 40  car_host_20.hostC.wlan[0].radio  transmissionState:vector  ETV
attr interpolationmode  sample-hold
attr source  transmissionStateChanged
attr title  "Radio transmission state, vector"
vector 88  car_host_20.hostC4.wlan[0].radio  transmissionState:vector  ETV
attr interpolationmode  sample-hold
attr source  transmissionStateChanged
attr title  "Radio transmission state, vector"
vector 94  car_host_20.hostC5.wlan[0].radio  transmissionState:vector  ETV
attr interpolationmode  sample-hold
attr source  transmissionStateChanged
attr title  "Radio transmission state, vector"
vector 124  car_host_20.hostC6.wlan[0].radio  transmissionState:vector  ETV
attr interpolationmode  sample-hold
attr source  transmissionStateChanged
attr title  "Radio transmission state, vector"
vector 19  car_host_20.hostD.udp  rcvdPk:vector(packetBytes)  ETV
attr interpolationmode  none
attr source  rcvdPk
attr title  "packets received, vector(packetBytes)"
vector 20  car_host_20.hostD.udp  passedUpPk:vector(count)  ETV
attr interpolationmode  none
attr title  "packets passed up, vector(count)"
vector 15  car_host_20.hostD.udpApp[0]  rcvdPk:vector(packetBytes)  ETV
attr interpolationmode  none
attr source  rcvdPk
attr title  "packets received, vector(packetBytes)"
vector 16  car_host_20.hostD.udpApp[0]  endToEndDelay:vector  ETV
attr interpolationmode  none
attr source  messageAge(rcvdPk)
attr title  "end-to-end delay, vector"
attr unit  s
vector 17  car_host_20.hostD.udpApp[0]  rcvdPkSeqNo:vector  ETV
attr interpolationmode  none
attr source  appPkSeqNo(rcvdPk)
attr title  "received packet sequence number, vector"
1	72	0.1	1000
1	427	0.2	1000
1	430	0.3	1000
1	433	0.4	1000
1	1575	0.5	1000
1	1578	0.6	1000
1	1581	0.7	1000
1	1584	0.8	1000
1	1588	0.9	1000
1	3904	1	1000
1	4296	1.1	1000
1	4410	1.2	1000
1	4643	1.3	1000
1	4876	1.4	1000
1	4990	1.5	1000
1	5104	1.6	1000
1	5218	1.7	1000
1	5272	1.8	1000
1	5386	1.9	1000
1	5522	2	1000
1	5576	2.1	1000
1	5809	2.2	1000
1	5923	2.3	1000
1	6037	2.4	1000
1	6173	2.5	1000
1	6227	2.6	1000
1	6341	2.7	1000
1	6455	2.8	1000
1	6569	2.9	1000
1	6795	3	1000
1	6909	3.1	1000
1	6963	3.2	1000
1	7017	3.3	1000
1	7250	3.4	1000
1	7483	3.5	1000
1	7716	3.6	1000
1	7949	3.7	1000
1	8182	3.8	1000
1	8415	3.9	1000
1	8551	4	1000
1	8784	4.1	1000
1	8900	4.2	1000
1	9014	4.3	1000
1	9247	4.4	1000
1	9480	4.5	1000
1	9594	4.6	1000
1	9827	4.7	1000
1	9941	4.8	1000
1	9997	4.9	1000
1	10252	5	1000
1	10366	5.1	1000
1	10599	5.2	1000
1	10832	5.3	1000
1	11065	5.4	1000
1	11179	5.5	1000
1	11412	5.6	1000
1	11526	5.7	1000
1	11640	5.8	1000
1	11754	5.9	1000
1	11890	6	1000
1	12125	6.1	1000
1	12359	6.2	1000
1	12420	6.3	1000
1	12541	6.4	1000
1	12658	6.5	1000
1	12712	6.6	1000
1	12826	6.7	1000
1	12882	6.8	1000
1	12996	6.9	1000
1	13251	7	1000
1	13484	7.1	1000
1	13598	7.2	1000
1	13712	7.3	1000
1	13826	7.4	1000
1	14059	7.5	1000
1	14114	7.6	1000
1	14347	7.7	1000
1	14461	7.8	1000
1	14515	7.9	1000
1	14770	8	1000
1	14885	8.1	1000
1	15118	8.2	1000
1	15351	8.3	1000
1	15584	8.4	1000
1	15698	8.5	1000
1	15931	8.6	1000
1	15987	8.7	1000
1	16220	8.8	1000
1	16334	8.9	1000
1	16589	9	1000
1	16822	9.1	1000
1	16936	9.2	1000
1	17169	9.3	1000
1	17402	9.4	1000
1	17517	9.5	1000
1	17750	9.6	1000
1	17983	9.7	1000
1	18097	9.8	1000
1	18151	9.9	1000
1	18228	10	1000
1	18342	10.1	1000
1	18456	10.2	1000
1	18689	10.3	1000
1	18743	10.4	1000
1	18976	10.5	1000
1	19032	10.6	1000
1	19146	10.7	1000
1	19379	10.8	1000
1	19612	10.9	1000
1	19688	11	1000
1	19921	11.1	1000
1	20035	11.2	1000
1	20089	11.3	1000
1	20323	11.4	1000
1	20556	11.5	1000
1	20789	11.6	1000
1	21023	11.7	1000
1	21077	11.8	1000
1	21310	11.9	1000
1	21446	12	1000
1	21679	12.1	1000
1	21733	12.2	1000
1	21966	12.3	1000
1	22080	12.4	1000
1	22336	12.5	1000
1	22569	12.6	1000
1	22623	12.7	1000
1	22856	12.8	1000
1	22970	12.9	1000
1	23374	13	1000
1	23488	13.1	1000
1	23602	13.2	1000
1	23835	13.3	1000
1	24068	13.4	1000
1	24122	13.5	1000
1	24236	13.6	1000
1	24350	13.7	1000
1	24404	13.8	1000
1	24458	13.9	1000
1	24713	14	1000
1	24767	14.1	1000
1	24821	14.2	1000
1	24875	14.3	1000
1	25108	14.4	1000
1	25162	14.5	1000
1	25276	14.6	1000
1	25390	14.7	1000
1	25446	14.8	1000
1	25561	14.9	1000
1	25817	15	1000
1	25931	15.1	1000
1	26164	15.2	1000
1	26278	15.3	1000
1	26392	15.4	1000
1	26506	15.5	1000
1	26620	15.6	1000
1	26734	15.7	1000
1	26848	15.8	1000
1	26962	15.9	1000
1	27098	16	1000
1	27152	16.1	1000
1	27207	16.2	1000
1	27268	16.3	1000
1	27510	16.4	1000
1	27746	16.5	1000
1	27860	16.6	1000
1	27974	16.7	1000
1	28029	16.8	1000
1	28263	16.9	1000
1	28518	17	1000
1	28572	17.1	1000
1	28686	17.2	1000
1	28800	17.3	1000
1	28914	17.4	1000
1	28968	17.5	1000
1	29201	17.6	1000
1	29315	17.7	1000
1	29548	17.8	1000
1	29781	17.9	1000
1	29917	18	1000
1	30031	18.1	1000
1	30085	18.2	1000
1	30199	18.3	1000
1	30315	18.4	1000
1	30548	18.5	1000
1	30602	18.6	1000
1	30836	18.7	1000
1	30950	18.8	1000
1	31184	18.9	1000
1	31260	19	1000
1	31493	19.1	1000
1	31726	19.2	1000
1	31840	19.3	1000
1	31894	19.4	1000
1	31948	19.5	1000
1	32062	19.6	1000
1	32116	19.7	1000
1	32349	19.8	1000
1	32584	19.9	1000
1	32839	20	1000
1	33072	20.1	1000
1	33305	20.2	1000
1	33419	20.3	1000
1	33652	20.4	1000
1	33766	20.5	1000
1	34000	20.6	1000
1	34114	20.7	1000
1	34229	20.8	1000
1	34343	20.9	1000
1	34598	21	1000
1	34652	21.1	1000
1	34706	21.2	1000
1	34820	21.3	1000
1	34874	21.4	1000
1	35107	21.5	1000
1	35340	21.6	1000
1	35454	21.7	1000
1	35687	21.8	1000
1	35922	21.9	1000
1	35998	22	1000
1	36231	22.1	1000
1	36345	22.2	1000
1	36578	22.3	1000
1	36811	22.4	1000
1	37045	22.5	1000
1	37278	22.6	1000
1	37393	22.7	1000
1	37507	22.8	1000
1	37621	22.9	1000
1	37697	23	1000
1	37930	23.1	1000
1	38044	23.2	1000
1	38098	23.3	1000
1	38212	23.4	1000
1	38326	23.5	1000
1	38380	23.6	1000
1	38494	23.7	1000
1	38608	23.8	1000
1	38664	23.9	1000
1	38800	24	1000
1	38914	24.1	1000
1	38968	24.2	1000
1	39082	24.3	1000
1	39316	24.4	1000
1	39549	24.5	1000
1	39783	24.6	1000
1	39837	24.7	1000
1	39891	24.8	1000
1	39945	24.9	1000
1	40200	25	1000
1	40256	25.1	1000
1	40370	25.2	1000
1	40603	25.3	1000
1	40836	25.4	1000
1	40950	25.5	1000
1	41064	25.6	1000
1	41118	25.7	1000
1	41172	25.8	1000
1	41226	25.9	1000
1	41481	26	1000
1	41595	26.1	1000
1	41649	26.2	1000
1	41883	26.3	1000
1	41997	26.4	1000
1	42111	26.5	1000
1	42166	26.6	1000
1	42280	26.7	1000
1	42513	26.8	1000
1	42627	26.9	1000
1	42884	27	1000
1	42998	27.1	1000
1	43052	27.2	1000
1	43285	27.3	1000
1	43399	27.4	1000
1	43513	27.5	1000
1	43567	27.6	1000
1	43681	27.7	1000
1	43735	27.8	1000
1	43968	27.9	1000
1	44223	28	1000
1	44277	28.1	1000
1	44332	28.2	1000
1	44565	28.3	1000
1	44619	28.4	1000
1	44853	28.5	1000
1	44967	28.6	1000
1	45200	28.7	1000
1	45314	28.8	1000
1	45428	28.9	1000
1	45685	29	1000
1	45799	29.1	1000
1	45913	29.2	1000
1	46027	29.3	1000
1	46141	29.4	1000
1	46255	29.5	1000
1	46369	29.6	1000
1	46602	29.7	1000
1	46716	29.8	1000
1	46770	29.9	1000
1	47025	30	1000
1	47080	30.1	1000
1	47313	30.2	1000
1	47547	30.3	1000
1	47601	30.4	1000
1	47834	30.5	1000
1	47948	30.6	1000
1	48004	30.7	1000
1	48237	30.8	1000
1	48351	30.9	1000
1	48487	31	1000
1	48720	31.1	1000
1	48953	31.2	1000
1	49067	31.3	1000
1	49181	31.4	1000
1	49295	31.5	1000
1	49409	31.6	1000
1	49463	31.7	1000
1	49577	31.8	1000
1	49631	31.9	1000
1	49708	32	1000
1	49762	32.1	1000
1	49817	32.2	1000
1	50050	32.3	1000
1	50283	32.4	1000
1	50518	32.5	1000
1	50632	32.6	1000
1	50746	32.7	1000
1	50860	32.8	1000
1	50974	32.9	1000
1	51050	33	1000
1	51164	33.1	1000
1	51218	33.2	1000
1	51272	33.3	1000
1	51386	33.4	1000
1	51500	33.5	1000
1	51733	33.6	1000
1	51787	33.7	1000
1	51842	33.8	1000
1	52076	33.9	1000
1	52152	34	1000
1	52206	34.1	1000
1	52260	34.2	1000
1	52493	34.3	1000
1	52726	34.4	1000
1	52782	34.5	1000
1	52896	34.6	1000
1	52950	34.7	1000
1	53064	34.8	1000
1	53118	34.9	1000
1	53194	35	1000
1	53427	35.1	1000
1	53660	35.2	1000
1	53893	35.3	1000
1	54126	35.4	1000
1	54240	35.5	1000
1	54355	35.6	1000
1	54409	35.7	1000
1	54643	35.8	1000
1	54757	35.9	1000
1	54893	36	1000
1	55007	36.1	1000
1	55240	36.2	1000
1	55473	36.3	1000
1	55708	36.4	1000
1	55822	36.5	1000
1	55936	36.6	1000
1	56169	36.7	1000
1	56223	36.8	1000
1	56337	36.9	1000
1	56473	37	1000
1	56706	37.1	1000
1	56760	37.2	1000
1	56814	37.3	1000
1	56928	37.4	1000
1	57042	37.5	1000
1	57097	37.6	1000
1	57152	37.7	1000
1	57385	37.8	1000
1	57618	37.9	1000
1	57873	38	1000
1	57927	38.1	1000
1	58160	38.2	1000
1	58274	38.3	1000
1	58509	38.4	1000
1	58623	38.5	1000
1	58737	38.6	1000
1	58970	38.7	1000
1	59024	38.8	1000
1	59138	38.9	1000
1	59214	39	1000
1	59268	39.1	1000
1	59382	39.2	1000
1	59496	39.3	1000
1	59729	39.4	1000
1	59963	39.5	1000
1	60018	39.6	1000
1	60072	39.7	1000
1	60126	39.8	1000
1	60180	39.9	1000
1	60435	40	1000
1	60668	40.1	1000
1	60784	40.2	1000
1	61017	40.3	1000
1	61131	40.4	1000
1	61364	40.5	1000
1	61418	40.6	1000
1	61472	40.7	1000
1	61705	40.8	1000
1	61759	40.9	1000
1	61835	41	1000
1	61889	41.1	1000
1	62003	41.2	1000
1	62057	41.3	1000
1	62291	41.4	1000
1	62346	41.5	1000
1	62400	41.6	1000
1	62633	41.7	1000
1	62747	41.8	1000
1	62980	41.9	1000
1	63056	42	1000
1	63172	42.1	1000
1	63226	42.2	1000
1	63280	42.3	1000
1	63334	42.4	1000
1	63448	42.5	1000
1	63562	42.6	1000
1	63676	42.7	1000
1	63730	42.8	1000
1	63963	42.9	1000
1	64039	43	1000
1	64272	43.1	1000
1	64326	43.2	1000
1	64559	43.3	1000
1	64675	43.4	1000
1	64789	43.5	1000
1	64843	43.6	1000
1	64957	43.7	1000
1	65071	43.8	1000
1	65187	43.9	1000
1	65323	44	1000
1	65556	44.1	1000
1	65670	44.2	1000
1	65724	44.3	1000
1	65957	44.4	1000
1	66071	44.5	1000
1	66185	44.6	1000
1	66239	44.7	1000
1	66353	44.8	1000
1	66407	44.9	1000
1	66662	45	1000
1	66895	45.1	1000
1	67128	45.2	1000
1	67186	45.3	1000
1	67419	45.4	1000
1	67533	45.5	1000
1	67587	45.6	1000
1	67820	45.7	1000
1	67934	45.8	1000
1	68048	45.9	1000
1	68184	46	1000
1	68298	46.1	1000
1	68531	46.2	1000
1	68764	46.3	1000
1	68997	46.4	1000
1	69051	46.5	1000
1	69165	46.6	1000
1	69398	46.7	1000
1	69631	46.8	1000
1	69745	46.9	1000
1	69881	47	1000
1	69995	47.1	1000
1	70113	47.2	1000
1	70167	47.3	1000
1	70281	47.4	1000
1	70514	47.5	1000
1	70568	47.6	1000
1	70682	47.7	1000
1	70915	47.8	1000
1	71029	47.9	1000
1	71165	48	1000
1	71279	48.1	1000
1	71333	48.2	1000
1	71566	48.3	1000
1	71620	48.4	1000
1	71853	48.5	1000
1	72086	48.6	1000
1	72319	48.7	1000
1	72375	48.8	1000
1	72608	48.9	1000
1	72863	49	1000
1	72918	49.1	1000
1	73033	49.2	1000
1	73207	49.3	1000
1	73321	49.4	1000
1	73435	49.5	1000
1	73668	49.6	1000
1	73782	49.7	1000
1	73836	49.8	1000
1	73890	49.9	1000
1	73966	50	1000
1	74199	50.1	1000
1	74432	50.2	1000
1	74665	50.3	1000
1	74719	50.4	1000
1	74773	50.5	1000
1	75006	50.6	1000
1	75241	50.7	1000
1	75355	50.8	1000
1	75409	50.9	1000
1	75666	51	1000
1	75899	51.1	1000
1	75953	51.2	1000
1	76007	51.3	1000
1	76061	51.4	1000
1	76115	51.5	1000
1	76229	51.6	1000
1	76343	51.7	1000
1	76457	51.8	1000
1	76690	51.9	1000
1	76826	52	1000
1	76940	52.1	1000
1	77173	52.2	1000
1	77227	52.3	1000
1	77460	52.4	1000
1	77574	52.5	1000
1	77689	52.6	1000
1	77923	52.7	1000
1	78038	52.8	1000
1	78153	52.9	1000
1	78408	53	1000
1	78641	53.1	1000
1	78874	53.2	1000
1	78928	53.3	1000
1	79042	53.4	1000
1	79156	53.5	1000
1	79389	53.6	1000
1	79622	53.7	1000
1	79676	53.8	1000
1	79790	53.9	1000
1	80045	54	1000
1	80099	54.1	1000
1	80213	54.2	1000
1	80327	54.3	1000
1	80443	54.4	1000
1	80497	54.5	1000
1	80551	54.6	1000
1	80665	54.7	1000
1	80781	54.8	1000
1	80895	54.9	1000
1	81150	55	1000
1	81264	55.1	1000
1	81318	55.2	1000
1	81432	55.3	1000
1	81546	55.4	1000
1	81660	55.5	1000
1	81774	55.6	1000
1	82007	55.7	1000
1	82121	55.8	1000
1	82235	55.9	1000
1	82373	56	1000
1	82487	56.1	1000
1	82720	56.2	1000
1	82834	56.3	1000
1	83067	56.4	1000
1	83300	56.5	1000
1	83414	56.6	1000
1	83648	56.7	1000
1	83882	56.8	1000
1	84115	56.9	1000
1	84251	57	1000
1	84305	57.1	1000
1	84419	57.2	1000
1	84652	57.3	1000
1	84885	57.4	1000
1	84999	57.5	1000
1	85113	57.6	1000
1	85229	57.7	1000
1	85343	57.8	1000
1	85457	57.9	1000
1	85593	58	1000
1	85707	58.1	1000
1	85821	58.2	1000
1	85935	58.3	1000
1	86168	58.4	1000
1	86401	58.5	1000
1	86635	58.6	1000
1	86750	58.7	1000
1	86804	58.8	1000
1	86918	58.9	1000
1	87054	59	1000
1	87287	59.1	1000
1	87520	59.2	1000
1	87574	59.3	1000
1	87690	59.4	1000
1	87804	59.5	1000
1	87858	59.6	1000
1	87972	59.7	1000
1	88086	59.8	1000
1	88200	59.9	1000
1	88455	60	1000
4	74	0.1	1008
4	428	0.2	1008
4	431	0.3	1008
4	434	0.4	1008
4	1576	0.5	1008
4	1579	0.6	1008
4	1582	0.7	1008
4	1585	0.8	1008
4	1589	0.9	1008
4	3905	1	1008
4	4297	1.1	1008
4	4411	1.2	1008
4	4644	1.3	1008
4	4877	1.4	1008
4	4991	1.5	1008
4	5105	1.6	1008
4	5219	1.7	1008
4	5273	1.8	1008
4	5387	1.9	1008
4	5523	2	1008
4	5577	2.1	1008
4	5810	2.2	1008
4	5924	2.3	1008
4	6038	2.4	1008
4	6174	2.5	1008
4	6228	2.6	1008
4	6342	2.7	1008
4	6456	2.8	1008
4	6570	2.9	1008
4	6796	3	1008
4	6910	3.1	1008
4	6964	3.2	1008
4	7018	3.3	1008
4	7251	3.4	1008
4	7484	3.5	1008
4	7717	3.6	1008
4	7950	3.7	1008
4	8183	3.8	1008
4	8416	3.9	1008
4	8552	4	1008
4	8785	4.1	1008
4	8901	4.2	1008
4	9015	4.3	1008
4	9248	4.4	1008
4	9481	4.5	1008
4	9595	4.6	1008
4	9828	4.7	1008
4	9942	4.8	1008
4	9998	4.9	1008
4	10253	5	1008
4	10367	5.1	1008
4	10600	5.2	1008
4	10833	5.3	1008
4	11066	5.4	1008
4	11180	5.5	1008
4	11413	5.6	1008
4	11527	5.7	1008
4	11641	5.8	1008
4	11755	5.9	1008
4	11891	6	1008
4	12126	6.1	1008
4	12360	6.2	1008
4	12421	6.3	1008
4	12542	6.4	1008
4	12659	6.5	1008
4	12713	6.6	1008
4	12827	6.7	1008
4	12883	6.8	1008
4	12997	6.9	1008
4	13252	7	1008
4	13485	7.1	1008
4	13599	7.2	1008
4	13713	7.3	1008
4	13827	7.4	1008
4	14060	7.5	1008
4	14115	7.6	1008
4	14348	7.7	1008
4	14462	7.8	1008
4	14516	7.9	1008
4	14771	8	1008
4	14886	8.1	1008
4	15119	8.2	1008
4	15352	8.3	1008
4	15585	8.4	1008
4	15699	8.5	1008
4	15932	8.6	1008
4	15988	8.7	1008
4	16221	8.8	1008
4	16335	8.9	1008
4	16590	9	1008
4	16823	9.1	1008
4	16937	9.2	1008
4	17170	9.3	1008
4	17403	9.4	1008
4	17518	9.5	1008
4	17751	9.6	1008
4	17984	9.7	1008
4	18098	9.8	1008
4	18152	9.9	1008
4	18229	10	1008
4	18343	10.1	1008
4	18457	10.2	1008
4	18690	10.3	1008
4	18744	10.4	1008
4	18977	10.5	1008
4	19033	10.6	1008
4	19147	10.7	1008
4	19380	10.8	1008
4	19613	10.9	1008
4	19689	11	1008
4	19922	11.1	1008
4	20036	11.2	1008
4	20090	11.3	1008
4	20324	11.4	1008
4	20557	11.5	1008
4	20790	11.6	1008
4	21024	11.7	1008
4	21078	11.8	1008
4	21311	11.9	1008
4	21447	12	1008
4	21680	12.1	1008
4	21734	12.2	1008
4	21967	12.3	1008
4	22081	12.4	1008
4	22337	12.5	1008
4	22570	12.6	1008
4	22624	12.7	1008
4	22857	12.8	1008
4	22971	12.9	1008
4	23375	13	1008
4	23489	13.1	1008
4	23603	13.2	1008
4	23836	13.3	1008
4	24069	13.4	1008
4	24123	13.5	1008
4	24237	13.6	1008
4	24351	13.7	1008
4	24405	13.8	1008
4	24459	13.9	1008
4	24714	14	1008
4	24768	14.1	1008
4	24822	14.2	1008
4	24876	14.3	1008
4	25109	14.4	1008
4	25163	14.5	1008
4	25277	14.6	1008
4	25391	14.7	1008
4	25447	14.8	1008
4	25562	14.9	1008
4	25818	15	1008
4	25932	15.1	1008
4	26165	15.2	1008
4	26279	15.3	1008
4	26393	15.4	1008
4	26507	15.5	1008
4	26621	15.6	1008
4	26735	15.7	1008
4	26849	15.8	1008
4	26963	15.9	1008
4	27099	16	1008
4	27153	16.1	1008
4	27208	16.2	1008
4	27269	16.3	1008
4	27511	16.4	1008
4	27747	16.5	1008
4	27861	16.6	1008
4	27975	16.7	1008
4	28030	16.8	1008
4	28264	16.9	1008
4	28519	17	1008
4	28573	17.1	1008
4	28687	17.2	1008
4	28801	17.3	1008
4	28915	17.4	1008
4	28969	17.5	1008
4	29202	17.6	1008
4	29316	17.7	1008
4	29549	17.8	1008
4	29782	17.9	1008
4	29918	18	1008
4	30032	18.1	1008
4	30086	18.2	1008
4	30200	18.3	1008
4	30316	18.4	1008
4	30549	18.5	1008
4	30603	18.6	1008
4	30837	18.7	1008
4	30951	18.8	1008
4	31185	18.9	1008
4	31261	19	1008
4	31494	19.1	1008
4	31727	19.2	1008
4	31841	19.3	1008
4	31895	19.4	1008
4	31949	19.5	1008
4	32063	19.6	1008
4	32117	19.7	1008
4	32350	19.8	1008
4	32585	19.9	1008
4	32840	20	1008
4	33073	20.1	1008
4	33306	20.2	1008
4	33420	20.3	1008
4	33653	20.4	1008
4	33767	20.5	1008
4	34001	20.6	1008
4	34115	20.7	1008
4	34230	20.8	1008
4	34344	20.9	1008
4	34599	21	1008
4	34653	21.1	1008
4	34707	21.2	1008
4	34821	21.3	1008
4	34875	21.4	1008
4	35108	21.5	1008
4	35341	21.6	1008
4	35455	21.7	1008
4	35688	21.8	1008
4	35923	21.9	1008
4	35999	22	1008
4	36232	22.1	1008
4	36346	22.2	1008
4	36579	22.3	1008
4	36812	22.4	1008
4	37046	22.5	1008
4	37279	22.6	1008
4	37394	22.7	1008
4	37508	22.8	1008
4	37622	22.9	1008
4	37698	23	1008
4	37931	23.1	1008
4	38045	23.2	1008
4	38099	23.3	1008
4	38213	23.4	1008
4	38327	23.5	1008
4	38381	23.6	1008
4	38495	23.7	1008
4	38609	23.8	1008
4	38665	23.9	1008
4	38801	24	1008
4	38915	24.1	1008
4	38969	24.2	1008
4	39083	24.3	1008
4	39317	24.4	1008
4	39550	24.5	1008
4	39784	24.6	1008
4	39838	24.7	1008
4	39892	24.8	1008
4	39946	24.9	1008
4	40201	25	1008
4	40257	25.1	1008
4	40371	25.2	1008
4	40604	25.3	1008
4	40837	25.4	1008
4	40951	25.5	1008
4	41065	25.6	1008
4	41119	25.7	1008
4	41173	25.8	1008
4	41227	25.9	1008
4	41482	26	1008
4	41596	26.1	1008
4	41650	26.2	1008
4	41884	26.3	1008
4	41998	26.4	1008
4	42112	26.5	1008
4	42167	26.6	1008
4	42281	26.7	1008
4	42514	26.8	1008
4	42628	26.9	1008
4	42885	27	1008
4	42999	27.1	1008
4	43053	27.2	1008
4	43286	27.3	1008
4	43400	27.4	1008
4	43514	27.5	1008
4	43568	27.6	1008
4	43682	27.7	1008
4	43736	27.8	1008
4	43969	27.9	1008
4	44224	28	1008
4	44278	28.1	1008
4	44333	28.2	1008
4	44566	28.3	1008
4	44620	28.4	1008
4	44854	28.5	1008
4	44968	28.6	1008
4	45201	28.7	1008
4	45315	28.8	1008
4	45429	28.9	1008
4	45686	29	1008
4	45800	29.1	1008
4	45914	29.2	1008
4	46028	29.3	1008
4	46142	29.4	1008
4	46256	29.5	1008
4	46370	29.6	1008
4	46603	29.7	1008
4	46717	29.8	1008
4	46771	29.9	1008
4	47026	30	1008
4	47081	30.1	1008
4	47314	30.2	1008
4	47548	30.3	1008
4	47602	30.4	1008
4	47835	30.5	1008
4	47949	30.6	1008
4	48005	30.7	1008
4	48238	30.8	1008
4	48352	30.9	1008
4	48488	31	1008
4	48721	31.1	1008
4	48954	31.2	1008
4	49068	31.3	1008
4	49182	31.4	1008
4	49296	31.5	1008
4	49410	31.6	1008
4	49464	31.7	1008
4	49578	31.8	1008
4	49632	31.9	1008
4	49709	32	1008
4	49763	32.1	1008
4	49818	32.2	1008
4	50051	32.3	1008
4	50284	32.4	1008
4	50519	32.5	1008
4	50633	32.6	1008
4	50747	32.7	1008
4	50861	32.8	1008
4	50975	32.9	1008
4	51051	33	1008
4	51165	33.1	1008
4	51219	33.2	1008
4	51273	33.3	1008
4	51387	33.4	1008
4	51501	33.5	1008
4	51734	33.6	1008
4	51788	33.7	1008
4	51843	33.8	1008
4	52077	33.9	1008
4	52153	34	1008
4	52207	34.1	1008
4	52261	34.2	1008
4	52494	34.3	1008
4	52727	34.4	1008
4	52783	34.5	1008
4	52897	34.6	1008
4	52951	34.7	1008
4	53065	34.8	1008
4	53119	34.9	1008
4	53195	35	1008
4	53428	35.1	1008
4	53661	35.2	1008
4	53894	35.3	1008
4	54127	35.4	1008
4	54241	35.5	1008
4	54356	35.6	1008
4	54410	35.7	1008
4	54644	35.8	1008
4	54758	35.9	1008
4	54894	36	1008
4	55008	36.1	1008
4	55241	36.2	1008
4	55474	36.3	1008
4	55709	36.4	1008
4	55823	36.5	1008
4	55937	36.6	1008
4	56170	36.7	1008
4	56224	36.8	1008
4	56338	36.9	1008
4	56474	37	1008
4	56707	37.1	1008
4	56761	37.2	1008
4	56815	37.3	1008
4	56929	37.4	1008
4	57043	37.5	1008
4	57098	37.6	1008
4	57153	37.7	1008
4	57386	37.8	1008
4	57619	37.9	1008
4	57874	38	1008
4	57928	38.1	1008
4	58161	38.2	1008
4	58275	38.3	1008
4	58510	38.4	1008
4	58624	38.5	1008
4	58738	38.6	1008
4	58971	38.7	1008
4	59025	38.8	1008
4	59139	38.9	1008
4	59215	39	1008
4	59269	39.1	1008
4	59383	39.2	1008
4	59497	39.3	1008
4	59730	39.4	1008
4	59964	39.5	1008
4	60019	39.6	1008
4	60073	39.7	1008
4	60127	39.8	1008
4	60181	39.9	1008
4	60436	40	1008
4	60669	40.1	1008
4	60785	40.2	1008
4	61018	40.3	1008
4	61132	40.4	1008
4	61365	40.5	1008
4	61419	40.6	1008
4	61473	40.7	1008
4	61706	40.8	1008
4	61760	40.9	1008
4	61836	41	1008
4	61890	41.1	1008
4	62004	41.2	1008
4	62058	41.3	1008
4	62292	41.4	1008
4	62347	41.5	1008
4	62401	41.6	1008
4	62634	41.7	1008
4	62748	41.8	1008
4	62981	41.9	1008
4	63057	42	1008
4	63173	42.1	1008
4	63227	42.2	1008
4	63281	42.3	1008
4	63335	42.4	1008
4	63449	42.5	1008
4	63563	42.6	1008
4	63677	42.7	1008
4	63731	42.8	1008
4	63964	42.9	1008
4	64040	43	1008
4	64273	43.1	1008
4	64327	43.2	1008
4	64560	43.3	1008
4	64676	43.4	1008
4	64790	43.5	1008
4	64844	43.6	1008
4	64958	43.7	1008
4	65072	43.8	1008
4	65188	43.9	1008
4	65324	44	1008
4	65557	44.1	1008
4	65671	44.2	1008
4	65725	44.3	1008
4	65958	44.4	1008
4	66072	44.5	1008
4	66186	44.6	1008
4	66240	44.7	1008
4	66354	44.8	1008
4	66408	44.9	1008
4	66663	45	1008
4	66896	45.1	1008
4	67129	45.2	1008
4	67187	45.3	1008
4	67420	45.4	1008
4	67534	45.5	1008
4	67588	45.6	1008
4	67821	45.7	1008
4	67935	45.8	1008
4	68049	45.9	1008
4	68185	46	1008
4	68299	46.1	1008
4	68532	46.2	1008
4	68765	46.3	1008
4	68998	46.4	1008
4	69052	46.5	1008
4	69166	46.6	1008
4	69399	46.7	1008
4	69632	46.8	1008
4	69746	46.9	1008
4	69882	47	1008
4	69996	47.1	1008
4	70114	47.2	1008
4	70168	47.3	1008
4	70282	47.4	1008
4	70515	47.5	1008
4	70569	47.6	1008
4	70683	47.7	1008
4	70916	47.8	1008
4	71030	47.9	1008
4	71166	48	1008
4	71280	48.1	1008
4	71334	48.2	1008
4	71567	48.3	1008
4	71621	48.4	1008
4	71854	48.5	1008
4	72087	48.6	1008
4	72320	48.7	1008
4	72376	48.8	1008
4	72609	48.9	1008
4	72864	49	1008
4	72919	49.1	1008
4	73034	49.2	1008
4	73208	49.3	1008
4	73322	49.4	1008
4	73436	49.5	1008
4	73669	49.6	1008
4	73783	49.7	1008
4	73837	49.8	1008
4	73891	49.9	1008
4	73967	50	1008
4	74200	50.1	1008
4	74433	50.2	1008
4	74666	50.3	1008
4	74720	50.4	1008
4	74774	50.5	1008
4	75007	50.6	1008
4	75242	50.7	1008
4	75356	50.8	1008
4	75410	50.9	1008
4	75667	51	1008
4	75900	51.1	1008
4	75954	51.2	1008
4	76008	51.3	1008
4	76062	51.4	1008
4	76116	51.5	1008
4	76230	51.6	1008
4	76344	51.7	1008
4	76458	51.8	1008
4	76691	51.9	1008
4	76827	52	1008
4	76941	52.1	1008
4	77174	52.2	1008
4	77228	52.3	1008
4	77461	52.4	1008
4	77575	52.5	1008
4	77690	52.6	1008
4	77924	52.7	1008
4	78039	52.8	1008
4	78154	52.9	1008
4	78409	53	1008
4	78642	53.1	1008
4	78875	53.2	1008
4	78929	53.3	1008
4	79043	53.4	1008
4	79157	53.5	1008
4	79390	53.6	1008
4	79623	53.7	1008
4	79677	53.8	1008
4	79791	53.9	1008
4	80046	54	1008
4	80100	54.1	1008
4	80214	54.2	1008
4	80328	54.3	1008
4	80444	54.4	1008
4	80498	54.5	1008
4	80552	54.6	1008
4	80666	54.7	1008
4	80782	54.8	1008
4	80896	54.9	1008
4	81151	55	1008
4	81265	55.1	1008
4	81319	55.2	1008
4	81433	55.3	1008
4	81547	55.4	1008
4	81661	55.5	1008
4	81775	55.6	1008
4	82008	55.7	1008
4	82122	55.8	1008
4	82236	55.9	1008
4	82374	56	1008
4	82488	56.1	1008
4	82721	56.2	1008
4	82835	56.3	1008
4	83068	56.4	1008
4	83301	56.5	1008
4	83415	56.6	1008
4	83649	56.7	1008
4	83883	56.8	1008
4	84116	56.9	1008
4	84252	57	1008
4	84306	57.1	1008
4	84420	57.2	1008
4	84653	57.3	1008
4	84886	57.4	1008
4	85000	57.5	1008
4	85114	57.6	1008
4	85230	57.7	1008
4	85344	57.8	1008
4	85458	57.9	1008
4	85594	58	1008
4	85708	58.1	1008
4	85822	58.2	1008
4	85936	58.3	1008
4	86169	58.4	1008
4	86402	58.5	1008
4	86636	58.6	1008
4	86751	58.7	1008
4	86805	58.8	1008
4	86919	58.9	1008
4	87055	59	1008
4	87288	59.1	1008
4	87521	59.2	1008
4	87575	59.3	1008
4	87691	59.4	1008
4	87805	59.5	1008
4	87859	59.6	1008
4	87973	59.7	1008
4	88087	59.8	1008
4	88201	59.9	1008
4	88456	60	1008
12	0	0	0
12	0	0	2
12	78	0.100676090866	3
12	101	0.101166090866	2
12	439	0.42237184294	3
12	462	0.42286184294	2
12	1593	0.901964986219	3
12	1616	0.902454986219	2
12	3348	0.922381715325	3
12	3375	0.930679715325	2
12	3401	0.931019715325	3
12	3425	0.939317715325	2
12	3536	0.948377222367	3
12	3594	0.956675222367	2
12	3619	0.956935222367	3
12	3643	0.965233222367	2
12	3671	0.965313222367	3
12	3696	0.973611222367	2
12	3722	0.974051222367	3
12	3746	0.982349222367	2
12	3832	0.991508729409	3
12	3856	0.999806729409	2
12	3991	1.008746236451	3
12	4051	1.017044236451	2
12	4099	1.017584236451	3
12	4156	1.025882236451	2
12	4182	1.026102236451	3
12	4207	1.034400236451	2
12	4300	1.10056	3
12	4323	1.108858	2
12	4414	1.20016	3
12	4437	1.208458	2
12	4647	1.30038	3
12	4670	1.308678	2
12	4880	1.40034	3
12	4903	1.408638	2
12	4994	1.50004	3
12	5017	1.508338	2
12	5108	1.6006	3
12	5131	1.608898	2
12	5222	1.70036	3
12	5245	1.708658	2
12	5276	1.80008	3
12	5299	1.808378	2
12	5390	1.90058	3
12	5413	1.908878	2
12	5526	2.0001	3
12	5549	2.008398	2
12	5580	2.10012	3
12	5603	2.108418	2
12	5813	2.20046	3
12	5836	2.208758	2
12	5927	2.3001	3
12	5950	2.308398	2
12	6041	2.40008	3
12	6064	2.408378	2
12	6177	2.50002	3
12	6200	2.508318	2
12	6231	2.60028	3
12	6254	2.608578	2
12	6345	2.7005	3
12	6368	2.708798	2
12	6459	2.80024	3
12	6482	2.808538	2
12	6573	2.9004	3
12	6667	2.908698	2
12	6799	3.0002	3
12	6822	3.008498	2
12	6913	3.10042	3
12	6936	3.108718	2
12	6967	3.20024	3
12	6990	3.208538	2
12	7021	3.30052	3
12	7044	3.308818	2
12	7254	3.40038	3
12	7277	3.408678	2
12	7487	3.50036	3
12	7510	3.508658	2
12	7720	3.6006	3
12	7743	3.608898	2
12	7953	3.70024	3
12	7976	3.708538	2
12	8186	3.80002	3
12	8209	3.808318	2
12	8419	3.9001	3
12	8442	3.908398	2
12	8555	4.0001	3
12	8578	4.008398	2
12	8788	4.1006	3
12	8811	4.108898	2
12	8904	4.2005	3
12	8927	4.208798	2
12	9018	4.3003	3
12	9041	4.308598	2
12	9251	4.40048	3
12	9274	4.408778	2
12	9484	4.50008	3
12	9507	4.508378	2
12	9598	4.60012	3
12	9621	4.608418	2
12	9831	4.70026	3
12	9854	4.708558	2
12	9945	4.80036	3
12	9969	4.808658	2
12	10001	4.90058	3
12	10024	4.908878	2
12	10256	5.00042	3
12	10279	5.008718	2
12	10370	5.10032	3
12	10393	5.108618	2
12	10603	5.20032	3
12	10626	5.208618	2
12	10836	5.30058	3
12	10859	5.308878	2
12	11069	5.40044	3
12	11092	5.408738	2
12	11183	5.5002	3
12	11206	5.508498	2
12	11416	5.60014	3
12	11439	5.608438	2
12	11530	5.70042	3
12	11553	5.708718	2
12	11644	5.80062	3
12	11667	5.808918	2
12	11758	5.90058	3
12	11781	5.908878	2
12	11894	6.00046	3
12	11917	6.008758	2
12	12129	6.10024	3
12	12152	6.108538	2
12	12363	6.20054	3
12	12386	6.208838	2
12	12424	6.30038	3
12	12447	6.308678	2
12	12545	6.4002	3
12	12568	6.408498	2
12	12662	6.50012	3
12	12685	6.508418	2
12	12716	6.60056	3
12	12739	6.608858	2
12	12830	6.7004	3
12	12854	6.708698	2
12	12886	6.8002	3
12	12909	6.808498	2
12	13000	6.9003	3
12	13023	6.908598	2
12	13255	7.00038	3
12	13278	7.008678	2
12	13488	7.1001	3
12	13511	7.108398	2
12	13602	7.20004	3
12	13625	7.208338	2
12	13716	7.30004	3
12	13739	7.308338	2
12	13830	7.40032	3
12	13853	7.408618	2
12	14063	7.50034	3
12	14086	7.508638	2
12	14118	7.60012	3
12	14141	7.608418	2
12	14351	7.7006	3
12	14374	7.708898	2
12	14465	7.8	3
12	14488	7.808298	2
12	14519	7.9005	3
12	14542	7.908798	2
12	14774	8.00036	3
12	14797	8.008658	2
12	14889	8.10044	3
12	14912	8.108738	2
12	15122	8.2003	3
12	15145	8.208598	2
12	15355	8.30058	3
12	15378	8.308878	2
12	15588	8.40062	3
12	15611	8.408918	2
12	15702	8.5004	3
12	15725	8.508698	2
12	15935	8.60034	3
12	15958	8.608638	2
12	15991	8.70034	3
12	16014	8.708638	2
12	16224	8.80024	3
12	16247	8.808538	2
12	16338	8.90054	3
12	16361	8.908838	2
12	16593	9.00006	3
12	16616	9.008358	2
12	16826	9.1001	3
12	16849	9.108398	2
12	16940	9.20002	3
12	16963	9.208318	2
12	17173	9.3002	3
12	17196	9.308498	2
12	17406	9.40034	3
12	17429	9.408638	2
12	17521	9.50062	3
12	17544	9.508918	2
12	17754	9.6002	3
12	17777	9.608498	2
12	17987	9.70056	3
12	18010	9.708858	2
12	18101	9.80052	3
12	18124	9.808818	2
12	18155	9.9003	3
12	18178	9.908598	2
12	18232	10.0002	3
12	18255	10.008498	2
12	18346	10.10048	3
12	18369	10.108778	2
12	18460	10.2001	3
12	18483	10.208398	2
12	18693	10.30022	3
12	18716	10.308518	2
12	18747	10.4006	3
12	18770	10.408898	2
12	18980	10.50058	3
12	19004	10.508878	2
12	19036	10.60052	3
12	19059	10.608818	2
12	19150	10.70028	3
12	19173	10.708578	2
12	19383	10.80036	3
12	19406	10.808658	2
12	19616	10.9001	3
12	19639	10.908398	2
12	19692	11.00016	3
12	19715	11.008458	2
12	19925	11.10052	3
12	19948	11.108818	2
12	20039	11.20034	3
12	20062	11.208638	2
12	20093	11.30034	3
12	20116	11.308638	2
12	20327	11.4003	3
12	20350	11.408598	2
12	20560	11.50058	3
12	20583	11.508878	2
12	20793	11.60026	3
12	20816	11.608558	2
12	21027	11.70036	3
12	21050	11.708658	2
12	21081	11.80022	3
12	21104	11.808518	2
12	21314	11.90054	3
12	21337	11.908838	2
12	21450	12.0006	3
12	21473	12.008898	2
12	21683	12.10008	3
12	21706	12.108378	2
12	21737	12.20052	3
12	21760	12.208818	2
12	21970	12.30026	3
12	21993	12.308558	2
12	22084	12.40042	3
12	22107	12.408718	2
12	22340	12.50032	3
12	22363	12.508618	2
12	22573	12.60038	3
12	22596	12.608678	2
12	22627	12.7001	3
12	22650	12.708398	2
12	22860	12.80062	3
12	22883	12.808918	2
12	22974	12.90026	3
12	23067	12.908558	2
12	23378	13.00034	3
12	23401	13.008638	2
12	23492	13.10038	3
12	23515	13.108678	2
12	23606	13.2006	3
12	23629	13.208898	2
12	23839	13.30014	3
12	23862	13.308438	2
12	24072	13.40062	3
12	24095	13.408918	2
12	24126	13.50042	3
12	24149	13.508718	2
12	24240	13.60032	3
12	24263	13.608618	2
12	24354	13.70058	3
12	24377	13.708878	2
12	24408	13.80052	3
12	24431	13.808818	2
12	24462	13.90028	3
12	24485	13.908578	2
12	24717	14.0002	3
12	24740	14.008498	2
12	24771	14.10022	3
12	24794	14.108518	2
12	24825	14.20032	3
12	24848	14.208618	2
12	24879	14.3005	3
12	24902	14.308798	2
12	25112	14.40022	3
12	25135	14.408518	2
12	25166	14.5006	3
12	25189	14.508898	2
12	25280	14.60016	3
12	25303	14.608458	2
12	25394	14.70058	3
12	25417	14.708878	2
12	25450	14.80048	3
12	25473	14.808778	2
12	25565	14.9005	3
12	25589	14.908798	2
12	25821	15.00052	3
12	25844	15.008818	2
12	25935	15.10036	3
12	25958	15.108658	2
12	26168	15.20044	3
12	26191	15.208738	2
12	26282	15.30008	3
12	26305	15.308378	2
12	26396	15.40028	3
12	26419	15.408578	2
12	26510	15.50018	3
12	26533	15.508478	2
12	26624	15.60056	3
12	26647	15.608858	2
12	26738	15.7001	3
12	26761	15.708398	2
12	26852	15.80036	3
12	26875	15.808658	2
12	26966	15.90032	3
12	26989	15.908618	2
12	27102	16.00008	3
12	27125	16.008378	2
12	27156	16.1	3
12	27179	16.108298	2
12	27211	16.20038	3
12	27234	16.208678	2
12	27272	16.30014	3
12	27295	16.308438	2
12	27514	16.4	3
12	27537	16.408298	2
12	27750	16.50016	3
12	27773	16.508458	2
12	27864	16.6002	3
12	27887	16.608498	2
12	27978	16.70006	3
12	28001	16.708358	2
12	28033	16.80002	3
12	28056	16.808318	2
12	28267	16.90006	3
12	28290	16.908358	2
12	28522	17.00058	3
12	28545	17.008878	2
12	28576	17.10022	3
12	28599	17.108518	2
12	28690	17.2	3
12	28713	17.208298	2
12	28804	17.3001	3
12	28827	17.308398	2
12	28918	17.4004	3
12	28941	17.408698	2
12	28972	17.50042	3
12	28995	17.508718	2
12	29205	17.60054	3
12	29228	17.608838	2
12	29319	17.70008	3
12	29342	17.708378	2
12	29552	17.80012	3
12	29575	17.808418	2
12	29785	17.9002	3
12	29808	17.908498	2
12	29921	18.0005	3
12	29944	18.008798	2
12	30035	18.10022	3
12	30058	18.108518	2
12	30089	18.2	3
12	30112	18.208298	2
12	30203	18.3006	3
12	30226	18.308898	2
12	30319	18.4006	3
12	30342	18.408898	2
12	30552	18.5002	3
12	30575	18.508498	2
12	30606	18.60008	3
12	30629	18.608378	2
12	30840	18.70012	3
12	30863	18.708418	2
12	30954	18.80042	3
12	30978	18.808718	2
12	31188	18.90046	3
12	31211	18.908758	2
12	31264	19.00026	3
12	31287	19.008558	2
12	31497	19.10022	3
12	31520	19.108518	2
12	31730	19.20054	3
12	31753	19.208838	2
12	31844	19.30022	3
12	31867	19.308518	2
12	31898	19.40058	3
12	31921	19.408878	2
12	31952	19.5003	3
12	31975	19.508598	2
12	32066	19.60038	3
12	32089	19.608678	2
12	32120	19.70016	3
12	32143	19.708458	2
12	32353	19.8002	3
12	32376	19.808498	2
12	32588	19.90022	3
12	32611	19.908518	2
12	32843	20.00014	3
12	32866	20.008438	2
12	33076	20.10014	3
12	33099	20.108438	2
12	33309	20.20002	3
12	33332	20.208318	2
12	33423	20.30018	3
12	33446	20.308478	2
12	33656	20.4002	3
12	33679	20.408498	2
12	33770	20.50026	3
12	33793	20.508558	2
12	34004	20.6001	3
12	34027	20.608398	2
12	34118	20.70056	3
12	34142	20.708858	2
12	34233	20.80002	3
12	34256	20.808318	2
12	34347	20.90008	3
12	34370	20.908378	2
12	34602	21.00056	3
12	34625	21.008858	2
12	34656	21.10022	3
12	34679	21.108518	2
12	34710	21.20052	3
12	34733	21.208818	2
12	34824	21.30012	3
12	34847	21.308418	2
12	34878	21.40056	3
12	34901	21.408858	2
12	35111	21.50032	3
12	35134	21.508618	2
12	35344	21.60042	3
12	35367	21.608718	2
12	35458	21.70006	3
12	35481	21.708358	2
12	35691	21.80004	3
12	35714	21.808338	2
12	35926	21.9	3
12	35949	21.908298	2
12	36002	22.00014	3
12	36025	22.008438	2
12	36235	22.1005	3
12	36258	22.108798	2
12	36349	22.20042	3
12	36372	22.208718	2
12	36582	22.30018	3
12	36605	22.308478	2
12	36815	22.40052	3
12	36838	22.408818	2
12	37049	22.5003	3
12	37072	22.508598	2
12	37282	22.60014	3
12	37306	22.608438	2
12	37397	22.70012	3
12	37420	22.708418	2
12	37511	22.80014	3
12	37534	22.808438	2
12	37625	22.90014	3
12	37648	22.908438	2
12	37701	23.00046	3
12	37724	23.008758	2
12	37934	23.10008	3
12	37957	23.108378	2
12	38048	23.2004	3
12	38071	23.208698	2
12	38102	23.3005	3
12	38125	23.308798	2
12	38216	23.4006	3
12	38239	23.408898	2
12	38330	23.5001	3
12	38353	23.508398	2
12	38384	23.60054	3
12	38407	23.608838	2
12	38498	23.7002	3
12	38521	23.708498	2
12	38612	23.80022	3
12	38635	23.808518	2
12	38668	23.90004	3
12	38691	23.908338	2
12	38804	24.00016	3
12	38827	24.008458	2
12	38918	24.10048	3
12	38941	24.108778	2
12	38972	24.20022	3
12	38995	24.208518	2
12	39086	24.3001	3
12	39109	24.308398	2
12	39320	24.40048	3
12	39343	24.408778	2
12	39553	24.50014	3
12	39576	24.508438	2
12	39787	24.60056	3
12	39810	24.608858	2
12	39841	24.70062	3
12	39864	24.708918	2
12	39895	24.80016	3
12	39918	24.808458	2
12	39949	24.90056	3
12	39972	24.908858	2
12	40204	25.00046	3
12	40227	25.008758	2
12	40260	25.10048	3
12	40283	25.108778	2
12	40374	25.20006	3
12	40397	25.208358	2
12	40607	25.30054	3
12	40630	25.308838	2
12	40840	25.40032	3
12	40863	25.408618	2
12	40954	25.5001	3
12	40977	25.508398	2
12	41068	25.6005	3
12	41091	25.608798	2
12	41122	25.70014	3
12	41145	25.708438	2
12	41176	25.8006	3
12	41199	25.808898	2
12	41230	25.9006	3
12	41253	25.908898	2
12	41485	26	3
12	41508	26.008298	2
12	41599	26.1003	3
12	41622	26.108598	2
12	41653	26.20018	3
12	41676	26.208478	2
12	41887	26.30052	3
12	41910	26.308818	2
12	42001	26.40014	3
12	42024	26.408438	2
12	42115	26.50036	3
12	42139	26.508658	2
12	42170	26.6001	3
12	42193	26.608398	2
12	42284	26.70056	3
12	42307	26.708858	2
12	42517	26.80006	3
12	42540	26.808358	2
12	42631	26.90028	3
12	42654	26.908578	2
12	42888	27.00016	3
12	42911	27.008458	2
12	43002	27.10004	3
12	43025	27.108338	2
12	43056	27.2	3
12	43079	27.208298	2
12	43289	27.30002	3
12	43312	27.308318	2
12	43403	27.40056	3
12	43426	27.408858	2
12	43517	27.5001	3
12	43540	27.508398	2
12	43571	27.60058	3
12	43594	27.608878	2
12	43685	27.70022	3
12	43708	27.708518	2
12	43739	27.80044	3
12	43762	27.808738	2
12	43972	27.90006	3
12	43995	27.908358	2
12	44227	28.00048	3
12	44250	28.008778	2
12	44281	28.1	3
12	44304	28.108298	2
12	44336	28.20014	3
12	44359	28.208438	2
12	44569	28.30022	3
12	44592	28.308518	2
12	44623	28.40038	3
12	44647	28.408678	2
12	44857	28.50034	3
12	44880	28.508638	2
12	44971	28.60044	3
12	44994	28.608738	2
12	45204	28.7	3
12	45227	28.708298	2
12	45318	28.80032	3
12	45341	28.808618	2
12	45432	28.90016	3
12	45455	28.908458	2
12	45689	29.00042	3
12	45712	29.008718	2
12	45803	29.1001	3
12	45826	29.108398	2
12	45917	29.20062	3
12	45940	29.208918	2
12	46031	29.3004	3
12	46054	29.308698	2
12	46145	29.4006	3
12	46168	29.408898	2
12	46259	29.50028	3
12	46282	29.508578	2
12	46373	29.6005	3
12	46396	29.608798	2
12	46606	29.70014	3
12	46629	29.708438	2
12	46720	29.8006	3
12	46743	29.808898	2
12	46774	29.90012	3
12	46797	29.908418	2
12	47029	30.00048	3
12	47052	30.008778	2
12	47084	30.10044	3
12	47107	30.108738	2
12	47317	30.2005	3
12	47341	30.208798	2
12	47551	30.3004	3
12	47574	30.308698	2
12	47605	30.40048	3
12	47628	30.408778	2
12	47838	30.50034	3
12	47861	30.508638	2
12	47952	30.60034	3
12	47975	30.608638	2
12	48008	30.70022	3
12	48031	30.708518	2
12	48241	30.80054	3
12	48264	30.808838	2
12	48355	30.90048	3
12	48378	30.908778	2
12	48491	31.0002	3
12	48514	31.008498	2
12	48724	31.1003	3
12	48747	31.108598	2
12	48957	31.2003	3
12	48980	31.208598	2
12	49071	31.30054	3
12	49094	31.308838	2
12	49185	31.40002	3
12	49208	31.408318	2
12	49299	31.50038	3
12	49322	31.508678	2
12	49413	31.60028	3
12	49436	31.608578	2
12	49467	31.7001	3
12	49490	31.708398	2
12	49581	31.80022	3
12	49604	31.808518	2
12	49635	31.9006	3
12	49658	31.908898	2
12	49712	32.00002	3
12	49735	32.008318	2
12	49766	32.1004	3
12	49789	32.108698	2
12	49821	32.20022	3
12	49844	32.208518	2
12	50054	32.30006	3
12	50077	32.308358	2
12	50287	32.40042	3
12	50310	32.408718	2
12	50522	32.50012	3
12	50545	32.508418	2
12	50636	32.60038	3
12	50659	32.608678	2
12	50750	32.70004	3
12	50773	32.708338	2
12	50864	32.8002	3
12	50887	32.808498	2
12	50978	32.90014	3
12	51001	32.908438	2
12	51054	33.00006	3
12	51077	33.008358	2
12	51168	33.10062	3
12	51191	33.108918	2
12	51222	33.20006	3
12	51245	33.208358	2
12	51276	33.30022	3
12	51299	33.308518	2
12	51390	33.40052	3
12	51413	33.408818	2
12	51504	33.50042	3
12	51527	33.508718	2
12	51737	33.6	3
12	51760	33.608298	2
12	51791	33.70042	3
12	51815	33.708718	2
12	51846	33.80024	3
12	51869	33.808538	2
12	52080	33.90018	3
12	52103	33.908478	2
12	52156	34.00018	3
12	52179	34.008478	2
12	52210	34.10022	3
12	52233	34.108518	2
12	52264	34.2	3
12	52287	34.208298	2
12	52497	34.30062	3
12	52520	34.308918	2
12	52730	34.40034	3
12	52753	34.408638	2
12	52786	34.50062	3
12	52809	34.508918	2
12	52900	34.6006	3
12	52923	34.608898	2
12	52954	34.70052	3
12	52977	34.708818	2
12	53068	34.8	3
12	53091	34.808298	2
12	53122	34.90006	3
12	53145	34.908358	2
12	53198	35.00032	3
12	53221	35.008618	2
12	53431	35.10032	3
12	53454	35.108618	2
12	53664	35.20062	3
12	53687	35.208918	2
12	53897	35.30034	3
12	53920	35.308638	2
12	54130	35.40044	3
12	54153	35.408738	2
12	54244	35.50038	3
12	54267	35.508678	2
12	54359	35.6003	3
12	54382	35.608598	2
12	54413	35.7	3
12	54436	35.708298	2
12	54647	35.80058	3
12	54670	35.808878	2
12	54761	35.90058	3
12	54784	35.908878	2
12	54897	36.00036	3
12	54920	36.008658	2
12	55011	36.1001	3
12	55034	36.108398	2
12	55244	36.2004	3
12	55267	36.208698	2
12	55477	36.30034	3
12	55500	36.308638	2
12	55712	36.40024	3
12	55735	36.408538	2
12	55826	36.50058	3
12	55849	36.508878	2
12	55940	36.60014	3
12	55963	36.608438	2
12	56173	36.70016	3
12	56196	36.708458	2
12	56227	36.80028	3
12	56250	36.808578	2
12	56341	36.90022	3
12	56364	36.908518	2
12	56477	37.00056	3
12	56500	37.008858	2
12	56710	37.10018	3
12	56733	37.108478	2
12	56764	37.20014	3
12	56787	37.208438	2
12	56818	37.30006	3
12	56841	37.308358	2
12	56932	37.40004	3
12	56955	37.408338	2
12	57046	37.5002	3
12	57069	37.508498	2
12	57101	37.60036	3
12	57124	37.608658	2
12	57156	37.70038	3
12	57179	37.708678	2
12	57389	37.80004	3
12	57412	37.808338	2
12	57622	37.90018	3
12	57645	37.908478	2
12	57877	38.0004	3
12	57900	38.008698	2
12	57931	38.10048	3
12	57954	38.108778	2
12	58164	38.20018	3
12	58187	38.208478	2
12	58278	38.30056	3
12	58301	38.308858	2
12	58513	38.40016	3
12	58536	38.408458	2
12	58627	38.50054	3
12	58650	38.508838	2
12	58741	38.60006	3
12	58764	38.608358	2
12	58974	38.70036	3
12	58997	38.708658	2
12	59028	38.80018	3
12	59051	38.808478	2
12	59142	38.90002	3
12	59165	38.908318	2
12	59218	39	3
12	59241	39.008298	2
12	59272	39.10056	3
12	59295	39.108858	2
12	59386	39.20022	3
12	59409	39.208518	2
12	59500	39.30012	3
12	59523	39.308418	2
12	59733	39.40012	3
12	59757	39.408418	2
12	59967	39.50014	3
12	59990	39.508438	2
12	60022	39.6006	3
12	60045	39.608898	2
12	60076	39.70052	3
12	60099	39.708818	2
12	60130	39.80002	3
12	60153	39.808318	2
12	60184	39.90002	3
12	60207	39.908318	2
12	60439	40.00016	3
12	60462	40.008458	2
12	60672	40.1003	3
12	60695	40.108598	2
12	60788	40.2006	3
12	60811	40.208898	2
12	61021	40.30058	3
12	61044	40.308878	2
12	61135	40.4	3
12	61158	40.408298	2
12	61368	40.50026	3
12	61391	40.508558	2
12	61422	40.60038	3
12	61445	40.608678	2
12	61476	40.70034	3
12	61499	40.708638	2
12	61709	40.80052	3
12	61732	40.808818	2
12	61763	40.90024	3
12	61786	40.908538	2
12	61839	41.00026	3
12	61862	41.008558	2
12	61893	41.10016	3
12	61916	41.108458	2
12	62007	41.20058	3
12	62030	41.208878	2
12	62061	41.30002	3
12	62084	41.308318	2
12	62295	41.40022	3
12	62318	41.408518	2
12	62350	41.50016	3
12	62373	41.508458	2
12	62404	41.60056	3
12	62427	41.608858	2
12	62637	41.70038	3
12	62660	41.708678	2
12	62751	41.80002	3
12	62774	41.808318	2
12	62984	41.90008	3
12	63007	41.908378	2
12	63060	42.00042	3
12	63083	42.008718	2
12	63176	42.10036	3
12	63199	42.108658	2
12	63230	42.20052	3
12	63253	42.208818	2
12	63284	42.30054	3
12	63307	42.308838	2
12	63338	42.40024	3
12	63361	42.408538	2
12	63452	42.50024	3
12	63475	42.508538	2
12	63566	42.60042	3
12	63589	42.608718	2
12	63680	42.70002	3
12	63703	42.708318	2
12	63734	42.80038	3
12	63757	42.808678	2
12	63967	42.90002	3
12	63990	42.908318	2
12	64043	43.0001	3
12	64066	43.008398	2
12	64276	43.10038	3
12	64299	43.108678	2
12	64330	43.2003	3
12	64353	43.208598	2
12	64563	43.30034	3
12	64587	43.308638	2
12	64679	43.40008	3
12	64702	43.408378	2
12	64793	43.5002	3
12	64816	43.508498	2
12	64847	43.60038	3
12	64870	43.608678	2
12	64961	43.70028	3
12	64984	43.708578	2
12	65075	43.80052	3
12	65098	43.808818	2
12	65191	43.90026	3
12	65214	43.908558	2
12	65327	44.00048	3
12	65350	44.008778	2
12	65560	44.10002	3
12	65583	44.108318	2
12	65674	44.2	3
12	65697	44.208298	2
12	65728	44.30028	3
12	65751	44.308578	2
12	65961	44.40058	3
12	65984	44.408878	2
12	66075	44.50032	3
12	66098	44.508618	2
12	66189	44.60006	3
12	66212	44.608358	2
12	66243	44.70052	3
12	66266	44.708818	2
12	66357	44.80036	3
12	66380	44.808658	2
12	66411	44.90036	3
12	66434	44.908658	2
12	66666	45.00024	3
12	66689	45.008538	2
12	66899	45.10046	3
12	66922	45.108758	2
12	67132	45.20042	3
12	67156	45.208718	2
12	67190	45.30028	3
12	67213	45.308578	2
12	67423	45.40038	3
12	67446	45.408678	2
12	67537	45.50004	3
12	67560	45.508338	2
12	67591	45.60012	3
12	67614	45.608418	2
12	67824	45.7	3
12	67847	45.708298	2
12	67938	45.80054	3
12	67961	45.808838	2
12	68052	45.90002	3
12	68075	45.908318	2
12	68188	46.00044	3
12	68211	46.008738	2
12	68302	46.10006	3
12	68325	46.108358	2
12	68535	46.20042	3
12	68558	46.208718	2
12	68768	46.30062	3
12	68791	46.308918	2
12	69001	46.40008	3
12	69024	46.408378	2
12	69055	46.50048	3
12	69078	46.508778	2
12	69169	46.60054	3
12	69192	46.608838	2
12	69402	46.70006	3
12	69425	46.708358	2
12	69635	46.80042	3
12	69658	46.808718	2
12	69749	46.9	3
12	69772	46.908298	2
12	69885	47.00028	3
12	69908	47.008578	2
12	69999	47.10038	3
12	70022	47.108678	2
12	70117	47.2002	3
12	70140	47.208498	2
12	70171	47.30032	3
12	70194	47.308618	2
12	70285	47.40032	3
12	70308	47.408618	2
12	70518	47.5004	3
12	70541	47.508698	2
12	70572	47.60044	3
12	70595	47.608738	2
12	70686	47.70034	3
12	70709	47.708638	2
12	70919	47.80032	3
12	70942	47.808618	2
12	71033	47.90002	3
12	71056	47.908318	2
12	71169	48.0001	3
12	71192	48.008398	2
12	71283	48.10052	3
12	71306	48.108818	2
12	71337	48.20018	3
12	71360	48.208478	2
12	71570	48.30058	3
12	71593	48.308878	2
12	71624	48.40014	3
12	71647	48.408438	2
12	71857	48.50026	3
12	71880	48.508558	2
12	72090	48.60012	3
12	72113	48.608418	2
12	72323	48.70054	3
12	72346	48.708838	2
12	72379	48.80028	3
12	72402	48.808578	2
12	72612	48.9001	3
12	72635	48.908398	2
12	72867	49.00014	3
12	72890	49.008438	2
12	72922	49.10062	3
12	72946	49.108918	2
12	73037	49.20028	3
12	73060	49.208578	2
12	73211	49.3003	3
12	73234	49.308598	2
12	73325	49.4002	3
12	73348	49.408498	2
12	73439	49.5	3
12	73462	49.508298	2
12	73672	49.60058	3
12	73695	49.608878	2
12	73786	49.70004	3
12	73809	49.708338	2
12	73840	49.80062	3
12	73863	49.808918	2
12	73894	49.90012	3
12	73917	49.908418	2
12	73970	50.00024	3
12	73993	50.008538	2
12	74203	50.10018	3
12	74226	50.108478	2
12	74436	50.2006	3
12	74459	50.208898	2
12	74669	50.30032	3
12	74692	50.308618	2
12	74723	50.40024	3
12	74746	50.408538	2
12	74777	50.50034	3
12	74800	50.508638	2
12	75010	50.60022	3
12	75033	50.608518	2
12	75245	50.7002	3
12	75268	50.708498	2
12	75359	50.80042	3
12	75382	50.808718	2
12	75413	50.90038	3
12	75437	50.908678	2
12	75670	51.00032	3
12	75693	51.008618	2
12	75903	51.10012	3
12	75926	51.108418	2
12	75957	51.20018	3
12	75980	51.208478	2
12	76011	51.30014	3
12	76034	51.308438	2
12	76065	51.40018	3
12	76088	51.408478	2
12	76119	51.50044	3
12	76142	51.508738	2
12	76233	51.60014	3
12	76256	51.608438	2
12	76347	51.7002	3
12	76370	51.708498	2
12	76461	51.8001	3
12	76484	51.808398	2
12	76694	51.90052	3
12	76717	51.908818	2
12	76830	52.00034	3
12	76853	52.008638	2
12	76944	52.1002	3
12	76967	52.108498	2
12	77177	52.20032	3
12	77200	52.208618	2
12	77231	52.30002	3
12	77254	52.308318	2
12	77464	52.4003	3
12	77487	52.408598	2
12	77578	52.50052	3
12	77601	52.508818	2
12	77693	52.6003	3
12	77716	52.608598	2
12	77927	52.70006	3
12	77950	52.708358	2
12	78042	52.80002	3
12	78065	52.808318	2
12	78157	52.90026	3
12	78180	52.908558	2
12	78412	53.00002	3
12	78435	53.008318	2
12	78645	53.1006	3
12	78668	53.108898	2
12	78878	53.20006	3
12	78901	53.208358	2
12	78932	53.3002	3
12	78955	53.308498	2
12	79046	53.40038	3
12	79069	53.408678	2
12	79160	53.5006	3
12	79183	53.508898	2
12	79393	53.60034	3
12	79416	53.608638	2
12	79626	53.70002	3
12	79649	53.708318	2
12	79680	53.80018	3
12	79703	53.808478	2
12	79794	53.90018	3
12	79817	53.908478	2
12	80049	54.0006	3
12	80072	54.008898	2
12	80103	54.10056	3
12	80126	54.108858	2
12	80217	54.20028	3
12	80240	54.208578	2
12	80331	54.30058	3
12	80354	54.308878	2
12	80447	54.40052	3
12	80470	54.408818	2
12	80501	54.50022	3
12	80524	54.508518	2
12	80555	54.6001	3
12	80578	54.608398	2
12	80669	54.70004	3
12	80692	54.708338	2
12	80785	54.8002	3
12	80808	54.808498	2
12	80899	54.9	3
12	80922	54.908298	2
12	81154	55.00016	3
12	81177	55.008458	2
12	81268	55.10048	3
12	81291	55.108778	2
12	81322	55.20004	3
12	81345	55.208338	2
12	81436	55.3003	3
12	81459	55.308598	2
12	81550	55.40024	3
12	81573	55.408538	2
12	81664	55.50018	3
12	81687	55.508478	2
12	81778	55.60012	3
12	81801	55.608418	2
12	82011	55.70042	3
12	82034	55.708718	2
12	82125	55.80008	3
12	82148	55.808378	2
12	82239	55.9001	3
12	82262	55.908398	2
12	82377	56.00022	3
12	82400	56.008518	2
12	82491	56.10014	3
12	82514	56.108438	2
12	82724	56.20004	3
12	82747	56.208338	2
12	82838	56.30026	3
12	82861	56.308558	2
12	83071	56.4004	3
12	83094	56.408698	2
12	83304	56.50048	3
12	83327	56.508778	2
12	83418	56.6005	3
12	83441	56.608798	2
12	83652	56.70024	3
12	83676	56.708538	2
12	83886	56.80042	3
12	83909	56.808718	2
12	84119	56.90006	3
12	84142	56.908358	2
12	84255	57.00056	3
12	84278	57.008858	2
12	84309	57.1003	3
12	84332	57.108598	2
12	84423	57.20044	3
12	84446	57.208738	2
12	84656	57.30012	3
12	84679	57.308418	2
12	84889	57.40036	3
12	84912	57.408658	2
12	85003	57.50054	3
12	85026	57.508838	2
12	85117	57.6006	3
12	85140	57.608898	2
12	85233	57.70026	3
12	85256	57.708558	2
12	85347	57.80014	3
12	85370	57.808438	2
12	85461	57.90042	3
12	85484	57.908718	2
12	85597	58.00028	3
12	85620	58.008578	2
12	85711	58.10004	3
12	85734	58.108338	2
12	85825	58.20032	3
12	85848	58.208618	2
12	85939	58.30016	3
12	85962	58.308458	2
12	86172	58.40054	3
12	86195	58.408838	2
12	86405	58.50056	3
12	86428	58.508858	2
12	86639	58.60026	3
12	86662	58.608558	2
12	86754	58.70046	3
12	86777	58.708758	2
12	86808	58.80058	3
12	86831	58.808878	2
12	86922	58.90006	3
12	86945	58.908358	2
12	87058	59.00034	3
12	87081	59.008638	2
12	87291	59.10036	3
12	87314	59.108658	2
12	87524	59.20056	3
12	87547	59.208858	2
12	87578	59.30054	3
12	87601	59.308838	2
12	87694	59.4002	3
12	87717	59.408498	2
12	87808	59.50048	3
12	87831	59.508778	2
12	87862	59.60048	3
12	87885	59.608778	2
12	87976	59.7002	3
12	87999	59.708498	2
12	88090	59.8006	3
12	88113	59.808898	2
12	88204	59.90028	3
12	88227	59.908578	2
13	0	0	1
13	78	0.100676090866	0
13	101	0.101166090866	1
13	147	0.104307847862	3
13	181	0.104797847862	1
13	211	0.104938726626	3
13	248	0.105428726626	1
13	273	0.105488870733	3
13	302	0.105978870733	1
13	343	0.105979607835	3
13	401	0.106469607835	1
13	439	0.42237184294	0
13	462	0.42286184294	1
13	507	0.42373501507	3
13	546	0.42422501507	1
13	571	0.424405159177	3
13	598	0.424895159177	1
13	652	0.424936067063	2
13	707	0.425426067063	1
13	723	0.425646404559	3
13	759	0.426136404559	1
13	875	0.42702779863	3
13	930	0.42751779863	1
13	1169	0.429059912274	2
13	1205	0.429210212168	1
13	1335	0.430301400695	2
13	1387	0.430791400695	1
13	1593	0.901964986219	0
13	1616	0.902454986219	1
13	1657	0.903262090603	3
13	1682	0.903752090603	1
13	1736	0.903918197904	3
13	1785	0.904408197904	1
13	1898	0.905291227841	3
13	1949	0.905781227841	1
13	2201	0.90769649383	3
13	2309	0.90818649383	1
13	2343	0.908390411554	2
13	2460	0.908880411554	1
13	2634	0.909771420848	2
13	2697	0.910261420848	1
13	3289	0.921363715325	3
13	3321	0.921821715325	1
13	3348	0.922381715325	0
13	3375	0.930679715325	1
13	3401	0.931019715325	0
13	3425	0.939317715325	1
13	3464	0.939579222367	3
13	3496	0.947877222367	1
13	3536	0.948377222367	0
13	3594	0.956675222367	1
13	3619	0.956935222367	0
13	3643	0.965233222367	1
13	3671	0.965313222367	0
13	3696	0.973611222367	1
13	3722	0.974051222367	0
13	3746	0.982349222367	1
13	3785	0.982770729409	3
13	3817	0.991068729409	1
13	3832	0.991508729409	0
13	3856	0.999806729409	1
13	3919	1.000128236451	3
13	3951	1.008426236451	1
13	3991	1.008746236451	0
13	4051	1.017044236451	1
13	4099	1.017584236451	0
13	4156	1.025882236451	1
13	4182	1.026102236451	0
13	4207	1.034400236451	1
13	4246	1.034541743493	3
13	4279	1.042839743493	1
13	4300	1.10056	0
13	4323	1.108858	1
13	4353	1.108859507042	3
13	4393	1.117157507042	1
13	4414	1.20016	0
13	4437	1.208458	1
13	4476	1.208879507042	3
13	4507	1.217177507042	1
13	4647	1.30038	0
13	4670	1.308678	1
13	4709	1.309059507042	3
13	4740	1.317357507042	1
13	4880	1.40034	0
13	4903	1.408638	1
13	4942	1.409099507042	3
13	4973	1.417397507042	1
13	4994	1.50004	0
13	5017	1.508338	1
13	5056	1.508659507042	3
13	5087	1.516957507042	1
13	5108	1.6006	0
13	5131	1.608898	1
13	5170	1.609199507042	3
13	5201	1.617497507042	1
13	5222	1.70036	0
13	5245	1.708658	1
13	5276	1.80008	0
13	5299	1.808378	1
13	5338	1.808659507042	3
13	5369	1.816957507042	1
13	5390	1.90058	0
13	5413	1.908878	1
13	5452	1.909359507042	3
13	5483	1.917657507042	1
13	5526	2.0001	0
13	5549	2.008398	1
13	5580	2.10012	0
13	5603	2.108418	1
13	5642	2.108979507042	3
13	5673	2.117277507042	1
13	5813	2.20046	0
13	5836	2.208758	1
13	5875	2.208879507042	3
13	5906	2.217177507042	1
13	5927	2.3001	0
13	5950	2.308398	1
13	5989	2.308599507042	3
13	6020	2.316897507042	1
13	6041	2.40008	0
13	6064	2.408378	1
13	6103	2.408859507042	3
13	6134	2.417157507042	1
13	6177	2.50002	0
13	6200	2.508318	1
13	6231	2.60028	0
13	6254	2.608578	1
13	6293	2.608919507042	3
13	6324	2.617217507042	1
13	6345	2.7005	0
13	6368	2.708798	1
13	6407	2.708979507042	3
13	6438	2.717277507042	1
13	6459	2.80024	0
13	6482	2.808538	1
13	6521	2.808799507042	3
13	6552	2.817097507042	1
13	6573	2.9004	0
13	6667	2.908698	1
13	6799	3.0002	0
13	6822	3.008498	1
13	6861	3.008899507042	3
13	6892	3.017197507042	1
13	6913	3.10042	0
13	6936	3.108718	1
13	6967	3.20024	0
13	6990	3.208538	1
13	7021	3.30052	0
13	7044	3.308818	1
13	7083	3.309179507042	3
13	7114	3.317477507042	1
13	7254	3.40038	0
13	7277	3.408678	1
13	7316	3.409079507042	3
13	7347	3.417377507042	1
13	7487	3.50036	0
13	7510	3.508658	1
13	7549	3.508839507042	3
13	7580	3.517137507042	1
13	7720	3.6006	0
13	7743	3.608898	1
13	7782	3.608999507042	3
13	7813	3.617297507042	1
13	7953	3.70024	0
13	7976	3.708538	1
13	8015	3.709119507042	3
13	8046	3.717417507042	1
13	8186	3.80002	0
13	8209	3.808318	1
13	8248	3.808919507042	3
13	8279	3.817217507042	1
13	8419	3.9001	0
13	8442	3.908398	1
13	8481	3.908779507042	3
13	8512	3.917077507042	1
13	8555	4.0001	0
13	8578	4.008398	1
13	8617	4.008839507042	3
13	8648	4.017137507042	1
13	8788	4.1006	0
13	8811	4.108898	1
13	8850	4.109479507042	3
13	8882	4.117777507042	1
13	8904	4.2005	0
13	8927	4.208798	1
13	8966	4.209099507042	3
13	8997	4.217397507042	1
13	9018	4.3003	0
13	9041	4.308598	1
13	9080	4.308619507042	3
13	9111	4.316917507042	1
13	9251	4.40048	0
13	9274	4.408778	1
13	9313	4.408959507042	3
13	9344	4.417257507042	1
13	9484	4.50008	0
13	9507	4.508378	1
13	9546	4.508419507042	3
13	9577	4.516717507042	1
13	9598	4.60012	0
13	9621	4.608418	1
13	9660	4.608799507042	3
13	9691	4.617097507042	1
13	9831	4.70026	0
13	9854	4.708558	1
13	9893	4.709119507042	3
13	9924	4.717417507042	1
13	9945	4.80036	0
13	9969	4.808658	1
13	10001	4.90058	0
13	10024	4.908878	1
13	10063	4.909199507042	3
13	10094	4.917497507042	1
13	10256	5.00042	0
13	10279	5.008718	1
13	10318	5.008939507042	3
13	10349	5.017237507042	1
13	10370	5.10032	0
13	10393	5.108618	1
13	10432	5.108779507042	3
13	10463	5.117077507042	1
13	10603	5.20032	0
13	10626	5.208618	1
13	10665	5.208839507042	3
13	10696	5.217137507042	1
13	10836	5.30058	0
13	10859	5.308878	1
13	10898	5.309459507042	3
13	10929	5.317757507042	1
13	11069	5.40044	0
13	11092	5.408738	1
13	11131	5.408939507042	3
13	11162	5.417237507042	1
13	11183	5.5002	0
13	11206	5.508498	1
13	11245	5.509099507042	3
13	11276	5.517397507042	1
13	11416	5.60014	0
13	11439	5.608438	1
13	11478	5.608759507042	3
13	11509	5.617057507042	1
13	11530	5.70042	0
13	11553	5.708718	1
13	11592	5.708999507042	3
13	11623	5.717297507042	1
13	11644	5.80062	0
13	11667	5.808918	1
13	11706	5.809239507042	3
13	11737	5.817537507042	1
13	11758	5.90058	0
13	11781	5.908878	1
13	11820	5.909439507042	3
13	11851	5.917737507042	1
13	11894	6.00046	0
13	11917	6.008758	1
13	11956	6.008839507042	3
13	11987	6.017137507042	1
13	12129	6.10024	0
13	12152	6.108538	1
13	12191	6.109099507042	3
13	12222	6.117397507042	1
13	12363	6.20054	0
13	12386	6.208838	1
13	12424	6.30038	0
13	12447	6.308678	1
13	12486	6.308819507042	3
13	12517	6.317117507042	1
13	12545	6.4002	0
13	12568	6.408498	1
13	12607	6.409019507042	3
13	12638	6.417317507042	1
13	12662	6.50012	0
13	12685	6.508418	1
13	12716	6.60056	0
13	12739	6.608858	1
13	12778	6.609199507042	3
13	12809	6.617497507042	1
13	12830	6.7004	0
13	12854	6.708698	1
13	12886	6.8002	0
13	12909	6.808498	1
13	12948	6.809039507042	3
13	12979	6.817337507042	1
13	13000	6.9003	0
13	13023	6.908598	1
13	13062	6.909079507042	3
13	13093	6.917377507042	1
13	13255	7.00038	0
13	13278	7.008678	1
13	13317	7.008939507042	3
13	13348	7.017237507042	1
13	13488	7.1001	0
13	13511	7.108398	1
13	13550	7.108419507042	3
13	13581	7.116717507042	1
13	13602	7.20004	0
13	13625	7.208338	1
13	13664	7.208539507042	3
13	13695	7.216837507042	1
13	13716	7.30004	0
13	13739	7.308338	1
13	13778	7.308379507042	3
13	13809	7.316677507042	1
13	13830	7.40032	0
13	13853	7.408618	1
13	13892	7.408919507042	3
13	13923	7.417217507042	1
13	14063	7.50034	0
13	14086	7.508638	1
13	14118	7.60012	0
13	14141	7.608418	1
13	14180	7.608619507042	3
13	14211	7.616917507042	1
13	14351	7.7006	0
13	14374	7.708898	1
13	14413	7.709379507042	3
13	14444	7.717677507042	1
13	14465	7.8	0
13	14488	7.808298	1
13	14519	7.9005	0
13	14542	7.908798	1
13	14581	7.909319507042	3
13	14612	7.917617507042	1
13	14774	8.00036	0
13	14797	8.008658	1
13	14836	8.009139507042	3
13	14867	8.017437507042	1
13	14889	8.10044	0
13	14912	8.108738	1
13	14951	8.109259507042	3
13	14982	8.117557507042	1
13	15122	8.2003	0
13	15145	8.208598	1
13	15184	8.209199507042	3
13	15215	8.217497507042	1
13	15355	8.30058	0
13	15378	8.308878	1
13	15417	8.309499507042	3
13	15448	8.317797507042	1
13	15588	8.40062	0
13	15611	8.408918	1
13	15650	8.409299507042	3
13	15681	8.417597507042	1
13	15702	8.5004	0
13	15725	8.508698	1
13	15764	8.508739507042	3
13	15795	8.517037507042	1
13	15935	8.60034	0
13	15958	8.608638	1
13	15991	8.70034	0
13	16014	8.708638	1
13	16053	8.709139507042	3
13	16084	8.717437507042	1
13	16224	8.80024	0
13	16247	8.808538	1
13	16286	8.808679507042	3
13	16317	8.816977507042	1
13	16338	8.90054	0
13	16361	8.908838	1
13	16400	8.909279507042	3
13	16431	8.917577507042	1
13	16593	9.00006	0
13	16616	9.008358	1
13	16655	9.008559507042	3
13	16686	9.016857507042	1
13	16826	9.1001	0
13	16849	9.108398	1
13	16888	9.109019507042	3
13	16919	9.117317507042	1
13	16940	9.20002	0
13	16963	9.208318	1
13	17002	9.208479507042	3
13	17033	9.216777507042	1
13	17173	9.3002	0
13	17196	9.308498	1
13	17235	9.308859507042	3
13	17266	9.317157507042	1
13	17406	9.40034	0
13	17429	9.408638	1
13	17468	9.409139507042	3
13	17500	9.417437507042	1
13	17521	9.50062	0
13	17544	9.508918	1
13	17583	9.508979507042	3
13	17614	9.517277507042	1
13	17754	9.6002	0
13	17777	9.608498	1
13	17816	9.608879507042	3
13	17847	9.617177507042	1
13	17987	9.70056	0
13	18010	9.708858	1
13	18049	9.709159507042	3
13	18080	9.717457507042	1
13	18101	9.80052	0
13	18124	9.808818	1
13	18155	9.9003	0
13	18178	9.908598	1
13	18232	10.0002	0
13	18255	10.008498	1
13	18294	10.008879507042	3
13	18325	10.017177507042	1
13	18346	10.10048	0
13	18369	10.108778	1
13	18408	10.109059507042	3
13	18439	10.117357507042	1
13	18460	10.2001	0
13	18483	10.208398	1
13	18522	10.208459507042	3
13	18553	10.216757507042	1
13	18693	10.30022	0
13	18716	10.308518	1
13	18747	10.4006	0
13	18770	10.408898	1
13	18809	10.409479507042	3
13	18840	10.417777507042	1
13	18980	10.50058	0
13	19004	10.508878	1
13	19036	10.60052	0
13	19059	10.608818	1
13	19098	10.609039507042	3
13	19129	10.617337507042	1
13	19150	10.70028	0
13	19173	10.708578	1
13	19212	10.708999507042	3
13	19243	10.717297507042	1
13	19383	10.80036	0
13	19406	10.808658	1
13	19445	10.809259507042	3
13	19476	10.817557507042	1
13	19616	10.9001	0
13	19639	10.908398	1
13	19692	11.00016	0
13	19715	11.008458	1
13	19754	11.008639507042	3
13	19785	11.016937507042	1
13	19925	11.10052	0
13	19948	11.108818	1
13	19987	11.109239507042	3
13	20018	11.117537507042	1
13	20039	11.20034	0
13	20062	11.208638	1
13	20093	11.30034	0
13	20116	11.308638	1
13	20155	11.308679507042	3
13	20186	11.316977507042	1
13	20327	11.4003	0
13	20350	11.408598	1
13	20389	11.408839507042	3
13	20420	11.417137507042	1
13	20560	11.50058	0
13	20583	11.508878	1
13	20622	11.509459507042	3
13	20653	11.517757507042	1
13	20793	11.60026	0
13	20816	11.608558	1
13	20855	11.609019507042	3
13	20886	11.617317507042	1
13	21027	11.70036	0
13	21050	11.708658	1
13	21081	11.80022	0
13	21104	11.808518	1
13	21143	11.808599507042	3
13	21174	11.816897507042	1
13	21314	11.90054	0
13	21337	11.908838	1
13	21376	11.908939507042	3
13	21407	11.917237507042	1
13	21450	12.0006	0
13	21473	12.008898	1
13	21512	12.009519507042	3
13	21543	12.017817507042	1
13	21683	12.10008	0
13	21706	12.108378	1
13	21737	12.20052	0
13	21760	12.208818	1
13	21799	12.209219507042	3
13	21830	12.217517507042	1
13	21970	12.30026	0
13	21993	12.308558	1
13	22032	12.308779507042	3
13	22063	12.317077507042	1
13	22084	12.40042	0
13	22107	12.408718	1
13	22147	12.408939507042	3
13	22178	12.417237507042	1
13	22340	12.50032	0
13	22363	12.508618	1
13	22402	12.509119507042	3
13	22433	12.517417507042	1
13	22573	12.60038	0
13	22596	12.608678	1
13	22627	12.7001	0
13	22650	12.708398	1
13	22689	12.708959507042	3
13	22720	12.717257507042	1
13	22860	12.80062	0
13	22883	12.808918	1
13	22922	12.809359507042	3
13	22953	12.817657507042	1
13	22974	12.90026	0
13	23067	12.908558	1
13	23106	12.908799507042	3
13	23216	12.917097507042	1
13	23378	13.00034	0
13	23401	13.008638	1
13	23440	13.009259507042	3
13	23471	13.017557507042	1
13	23492	13.10038	0
13	23515	13.108678	1
13	23554	13.109039507042	3
13	23585	13.117337507042	1
13	23606	13.2006	0
13	23629	13.208898	1
13	23668	13.209179507042	3
13	23699	13.217477507042	1
13	23839	13.30014	0
13	23862	13.308438	1
13	23901	13.308679507042	3
13	23932	13.316977507042	1
13	24072	13.40062	0
13	24095	13.408918	1
13	24126	13.50042	0
13	24149	13.508718	1
13	24188	13.509059507042	3
13	24219	13.517357507042	1
13	24240	13.60032	0
13	24263	13.608618	1
13	24302	13.608739507042	3
13	24333	13.617037507042	1
13	24354	13.70058	0
13	24377	13.708878	1
13	24408	13.80052	0
13	24431	13.808818	1
13	24462	13.90028	0
13	24485	13.908578	1
13	24524	13.908759507042	3
13	24555	13.917057507042	1
13	24717	14.0002	0
13	24740	14.008498	1
13	24771	14.10022	0
13	24794	14.108518	1
13	24825	14.20032	0
13	24848	14.208618	1
13	24879	14.3005	0
13	24902	14.308798	1
13	24941	14.309339507042	3
13	24972	14.317637507042	1
13	25112	14.40022	0
13	25135	14.408518	1
13	25166	14.5006	0
13	25189	14.508898	1
13	25228	14.509259507042	3
13	25259	14.517557507042	1
13	25280	14.60016	0
13	25303	14.608458	1
13	25342	14.608719507042	3
13	25373	14.617017507042	1
13	25394	14.70058	0
13	25417	14.708878	1
13	25450	14.80048	0
13	25473	14.808778	1
13	25503	14.808779507042	3
13	25543	14.817077507042	1
13	25565	14.9005	0
13	25589	14.908798	1
13	25628	14.909319507042	3
13	25659	14.917617507042	1
13	25821	15.00052	0
13	25844	15.008818	1
13	25883	15.009179507042	3
13	25914	15.017477507042	1
13	25935	15.10036	0
13	25958	15.108658	1
13	25997	15.108779507042	3
13	26028	15.117077507042	1
13	26168	15.20044	0
13	26191	15.208738	1
13	26230	15.208919507042	3
13	26261	15.217217507042	1
13	26282	15.30008	0
13	26305	15.308378	1
13	26344	15.308799507042	3
13	26375	15.317097507042	1
13	26396	15.40028	0
13	26419	15.408578	1
13	26458	15.408859507042	3
13	26489	15.417157507042	1
13	26510	15.50018	0
13	26533	15.508478	1
13	26572	15.509099507042	3
13	26603	15.517397507042	1
13	26624	15.60056	0
13	26647	15.608858	1
13	26686	15.609059507042	3
13	26717	15.617357507042	1
13	26738	15.7001	0
13	26761	15.708398	1
13	26800	15.709019507042	3
13	26831	15.717317507042	1
13	26852	15.80036	0
13	26875	15.808658	1
13	26914	15.809159507042	3
13	26945	15.817457507042	1
13	26966	15.90032	0
13	26989	15.908618	1
13	27028	15.908899507042	3
13	27059	15.917197507042	1
13	27102	16.00008	0
13	27125	16.008378	1
13	27156	16.1	0
13	27179	16.108298	1
13	27211	16.20038	0
13	27234	16.208678	1
13	27272	16.30014	0
13	27295	16.308438	1
13	27334	16.308619507042	3
13	27365	16.316917507042	1
13	27514	16.4	0
13	27537	16.408298	1
13	27576	16.408699507042	3
13	27607	16.416997507042	1
13	27750	16.50016	0
13	27773	16.508458	1
13	27812	16.508619507042	3
13	27843	16.516917507042	1
13	27864	16.6002	0
13	27887	16.608498	1
13	27926	16.608919507042	3
13	27957	16.617217507042	1
13	27978	16.70006	0
13	28001	16.708358	1
13	28033	16.80002	0
13	28056	16.808318	1
13	28095	16.808479507042	3
13	28127	16.816777507042	1
13	28267	16.90006	0
13	28290	16.908358	1
13	28329	16.908759507042	3
13	28360	16.917057507042	1
13	28522	17.00058	0
13	28545	17.008878	1
13	28576	17.10022	0
13	28599	17.108518	1
13	28638	17.109119507042	3
13	28669	17.117417507042	1
13	28690	17.2	0
13	28713	17.208298	1
13	28752	17.208759507042	3
13	28783	17.217057507042	1
13	28804	17.3001	0
13	28827	17.308398	1
13	28866	17.308699507042	3
13	28897	17.316997507042	1
13	28918	17.4004	0
13	28941	17.408698	1
13	28972	17.50042	0
13	28995	17.508718	1
13	29034	17.508899507042	3
13	29065	17.517197507042	1
13	29205	17.60054	0
13	29228	17.608838	1
13	29267	17.608999507042	3
13	29298	17.617297507042	1
13	29319	17.70008	0
13	29342	17.708378	1
13	29381	17.708439507042	3
13	29412	17.716737507042	1
13	29552	17.80012	0
13	29575	17.808418	1
13	29614	17.808999507042	3
13	29645	17.817297507042	1
13	29785	17.9002	0
13	29808	17.908498	1
13	29847	17.908979507042	3
13	29878	17.917277507042	1
13	29921	18.0005	0
13	29944	18.008798	1
13	29983	18.009119507042	3
13	30014	18.017417507042	1
13	30035	18.10022	0
13	30058	18.108518	1
13	30089	18.2	0
13	30112	18.208298	1
13	30151	18.208659507042	3
13	30182	18.216957507042	1
13	30203	18.3006	0
13	30226	18.308898	1
13	30265	18.309019507042	3
13	30297	18.317317507042	1
13	30319	18.4006	0
13	30342	18.408898	1
13	30381	18.409099507042	3
13	30412	18.417397507042	1
13	30552	18.5002	0
13	30575	18.508498	1
13	30606	18.60008	0
13	30629	18.608378	1
13	30659	18.608379507042	3
13	30699	18.616677507042	1
13	30840	18.70012	0
13	30863	18.708418	1
13	30902	18.709019507042	3
13	30933	18.717317507042	1
13	30954	18.80042	0
13	30978	18.808718	1
13	31017	18.808979507042	3
13	31048	18.817277507042	1
13	31188	18.90046	0
13	31211	18.908758	1
13	31264	19.00026	0
13	31287	19.008558	1
13	31326	19.008719507042	3
13	31357	19.017017507042	1
13	31497	19.10022	0
13	31520	19.108518	1
13	31559	19.108559507042	3
13	31590	19.116857507042	1
13	31730	19.20054	0
13	31753	19.208838	1
13	31792	19.208899507042	3
13	31823	19.217197507042	1
13	31844	19.30022	0
13	31867	19.308518	1
13	31898	19.40058	0
13	31921	19.408878	1
13	31952	19.5003	0
13	31975	19.508598	1
13	32014	19.508779507042	3
13	32045	19.517077507042	1
13	32066	19.60038	0
13	32089	19.608678	1
13	32120	19.70016	0
13	32143	19.708458	1
13	32182	19.708899507042	3
13	32213	19.717197507042	1
13	32353	19.8002	0
13	32376	19.808498	1
13	32415	19.808519507042	3
13	32446	19.816817507042	1
13	32588	19.90022	0
13	32611	19.908518	1
13	32650	19.909119507042	3
13	32681	19.917417507042	1
13	32843	20.00014	0
13	32866	20.008438	1
13	32905	20.008579507042	3
13	32936	20.016877507042	1
13	33076	20.10014	0
13	33099	20.108438	1
13	33138	20.108639507042	3
13	33169	20.116937507042	1
13	33309	20.20002	0
13	33332	20.208318	1
13	33371	20.208819507042	3
13	33402	20.217117507042	1
13	33423	20.30018	0
13	33446	20.308478	1
13	33485	20.308839507042	3
13	33516	20.317137507042	1
13	33656	20.4002	0
13	33679	20.408498	1
13	33718	20.408559507042	3
13	33749	20.416857507042	1
13	33770	20.50026	0
13	33793	20.508558	1
13	33832	20.508599507042	3
13	33863	20.516897507042	1
13	34004	20.6001	0
13	34027	20.608398	1
13	34066	20.608479507042	3
13	34097	20.616777507042	1
13	34118	20.70056	0
13	34142	20.708858	1
13	34172	20.708859507042	3
13	34212	20.717157507042	1
13	34233	20.80002	0
13	34256	20.808318	1
13	34295	20.808579507042	3
13	34326	20.816877507042	1
13	34347	20.90008	0
13	34370	20.908378	1
13	34409	20.908839507042	3
13	34440	20.917137507042	1
13	34602	21.00056	0
13	34625	21.008858	1
13	34656	21.10022	0
13	34679	21.108518	1
13	34710	21.20052	0
13	34733	21.208818	1
13	34772	21.209059507042	3
13	34803	21.217357507042	1
13	34824	21.30012	0
13	34847	21.308418	1
13	34878	21.40056	0
13	34901	21.408858	1
13	34940	21.408979507042	3
13	34971	21.417277507042	1
13	35111	21.50032	0
13	35134	21.508618	1
13	35173	21.508879507042	3
13	35204	21.517177507042	1
13	35344	21.60042	0
13	35367	21.608718	1
13	35406	21.609279507042	3
13	35437	21.617577507042	1
13	35458	21.70006	0
13	35481	21.708358	1
13	35520	21.708539507042	3
13	35551	21.716837507042	1
13	35691	21.80004	0
13	35714	21.808338	1
13	35753	21.808439507042	3
13	35784	21.816737507042	1
13	35926	21.9	0
13	35949	21.908298	1
13	36002	22.00014	0
13	36025	22.008438	1
13	36064	22.009039507042	3
13	36095	22.017337507042	1
13	36235	22.1005	0
[...]
147	53318	35.017378194506	3
147	53351	35.025676194506	1
147	53379	35.026037143639	2
147	53413	35.034335143639	1
147	53494	35.108939509318	3
147	53526	35.117237509318	1
147	53551	35.117678194506	3
147	53584	35.125976194506	1
147	53612	35.126377143639	2
147	53646	35.134675143639	1
147	53727	35.209459509318	3
147	53759	35.217757509318	1
147	53784	35.218038194506	3
147	53817	35.226336194506	1
147	53845	35.226637143639	2
147	53879	35.234935143639	1
147	53960	35.309219509318	3
147	53992	35.317517509318	1
147	54017	35.318038194506	3
147	54050	35.326336194506	1
147	54078	35.326657143639	2
147	54112	35.334955143639	1
147	54193	35.409219509318	3
147	54225	35.417517509318	1
147	54308	35.509139509318	3
147	54340	35.517437509318	1
147	54476	35.708579509318	3
147	54508	35.716877509318	1
147	54533	35.717438194506	3
147	54566	35.725736194506	1
147	54594	35.726177143639	2
147	54628	35.734475143639	1
147	54710	35.809399509318	3
147	54742	35.817697509318	1
147	54824	35.909299509318	3
147	54856	35.917597509318	1
147	54960	36.008799509318	3
147	54992	36.017097509318	1
147	55074	36.108699509318	3
147	55106	36.116997509318	1
147	55131	36.117458194506	3
147	55164	36.125756194506	1
147	55192	36.125797143639	2
147	55226	36.134095143639	1
147	55307	36.208759509318	3
147	55339	36.217057509318	1
147	55364	36.217598194506	3
147	55397	36.225896194506	1
147	55425	36.226017143639	2
147	55459	36.234315143639	1
147	55540	36.308719509318	3
147	55572	36.317017509318	1
147	55598	36.317518194506	3
147	55631	36.325816194506	1
147	55659	36.325957143639	2
147	55694	36.334255143639	1
147	55775	36.409159509318	3
147	55807	36.417457509318	1
147	55889	36.509219509318	3
147	55921	36.517517509318	1
147	56003	36.608579509318	3
147	56035	36.616877509318	1
147	56060	36.616978194506	3
147	56093	36.625276194506	1
147	56121	36.625477143639	2
147	56155	36.633775143639	1
147	56290	36.809139509318	3
147	56322	36.817437509318	1
147	56404	36.909099509318	3
147	56436	36.917397509318	1
147	56531	37.008859509318	3
147	56572	37.017157509318	1
147	56597	37.017538194506	3
147	56630	37.025836194506	1
147	56658	37.025897143639	2
147	56692	37.034195143639	1
147	56881	37.308539509318	3
147	56913	37.316837509318	1
147	56995	37.408959509318	3
147	57027	37.417257509318	1
147	57219	37.708759509318	3
147	57251	37.717057509318	1
147	57276	37.717398194506	3
147	57309	37.725696194506	1
147	57337	37.726197143639	2
147	57371	37.734495143639	1
147	57443	37.808339509318	3
147	57484	37.816637509318	1
147	57509	37.816758194506	3
147	57542	37.825056194506	1
147	57570	37.825657143639	2
147	57604	37.833955143639	1
147	57685	37.908859509318	3
147	57717	37.917157509318	1
147	57742	37.917638194506	3
147	57775	37.925936194506	1
147	57803	37.925977143639	2
147	57837	37.934275143639	1
147	57994	38.108999509318	3
147	58026	38.117297509318	1
147	58051	38.117838194506	3
147	58084	38.126136194506	1
147	58112	38.126677143639	2
147	58146	38.134975143639	1
147	58227	38.208719509318	3
147	58259	38.217017509318	1
147	58341	38.309479509318	3
147	58374	38.317777509318	1
147	58399	38.318338194506	3
147	58433	38.326636194506	1
147	58461	38.326857143639	2
147	58495	38.335155143639	1
147	58576	38.408899509318	3
147	58608	38.417197509318	1
147	58690	38.508959509318	3
147	58722	38.517257509318	1
147	58804	38.608419509318	3
147	58836	38.616717509318	1
147	58861	38.617298194506	3
147	58894	38.625596194506	1
147	58922	38.625917143639	2
147	58956	38.634215143639	1
147	59091	38.808499509318	3
147	59123	38.816797509318	1
147	59335	39.109319509318	3
147	59367	39.117617509318	1
147	59449	39.208999509318	3
147	59481	39.217297509318	1
147	59563	39.308519509318	3
147	59595	39.316817509318	1
147	59620	39.316998194506	3
147	59653	39.325296194506	1
147	59681	39.325357143639	2
147	59715	39.333655143639	1
147	59797	39.408859509318	3
147	59829	39.417157509318	1
147	59854	39.417338194506	3
147	59887	39.425636194506	1
147	59915	39.425777143639	2
147	59949	39.434075143639	1
147	60247	39.908479509318	3
147	60279	39.916777509318	1
147	60304	39.917098194506	3
147	60337	39.925396194506	1
147	60365	39.925657143639	2
147	60399	39.933955143639	1
147	60502	40.008599509318	3
147	60534	40.016897509318	1
147	60559	40.017298194506	3
147	60592	40.025596194506	1
147	60620	40.025997143639	2
147	60654	40.034295143639	1
147	60735	40.108799509318	3
147	60767	40.117097509318	1
147	60851	40.208979509318	3
147	60883	40.217277509318	1
147	60908	40.217638194506	3
147	60941	40.225936194506	1
147	60969	40.226437143639	2
147	61003	40.234735143639	1
147	61084	40.309159509318	3
147	61116	40.317457509318	1
147	61198	40.408419509318	3
147	61230	40.416717509318	1
147	61255	40.417198194506	3
147	61290	40.425496194506	1
147	61316	40.425497143639	2
147	61350	40.433795143639	1
147	61539	40.708819509318	3
147	61571	40.717117509318	1
147	61596	40.717338194506	3
147	61629	40.725636194506	1
147	61657	40.725937143639	2
147	61691	40.734235143639	1
147	61956	41.108859509318	3
147	61988	41.117157509318	1
147	62125	41.308739509318	3
147	62157	41.317037509318	1
147	62180	41.317038194506	3
147	62215	41.325336194506	1
147	62243	41.325797143639	2
147	62277	41.334095143639	1
147	62467	41.609359509318	3
147	62499	41.617657509318	1
147	62524	41.617938194506	3
147	62557	41.626236194506	1
147	62585	41.626837143639	2
147	62619	41.635135143639	1
147	62700	41.709179509318	3
147	62732	41.717477509318	1
147	62814	41.808919509318	3
147	62846	41.817217509318	1
147	62871	41.817498194506	3
147	62904	41.825796194506	1
147	62932	41.826317143639	2
147	62966	41.834615143639	1
147	63123	42.008799509318	3
147	63156	42.017097509318	1
147	63401	42.409139509318	3
147	63433	42.417437509318	1
147	63515	42.508699509318	3
147	63547	42.516997509318	1
147	63629	42.608939509318	3
147	63661	42.617237509318	1
147	63797	42.808899509318	3
147	63829	42.817197509318	1
147	63854	42.817478194506	3
147	63887	42.825776194506	1
147	63915	42.825857143639	2
147	63949	42.834155143639	1
147	64106	43.008499509318	3
147	64138	43.016797509318	1
147	64163	43.017098194506	3
147	64196	43.025396194506	1
147	64224	43.025597143639	2
147	64258	43.033895143639	1
147	64393	43.208979509318	3
147	64425	43.217277509318	1
147	64450	43.217378194506	3
147	64483	43.225676194506	1
147	64511	43.226157143639	2
147	64545	43.234455143639	1
147	64627	43.308879509318	3
147	64659	43.317177509318	1
147	64742	43.408639509318	3
147	64774	43.416937509318	1
147	64910	43.609079509318	3
147	64942	43.617377509318	1
147	65024	43.708639509318	3
147	65056	43.716937509318	1
147	65138	43.809399509318	3
147	65171	43.817697509318	1
147	65245	43.908559509318	3
147	65286	43.916857509318	1
147	65390	44.008879509318	3
147	65422	44.017177509318	1
147	65447	44.017638194506	3
147	65480	44.025936194506	1
147	65508	44.026377143639	2
147	65542	44.034675143639	1
147	65623	44.108919509318	3
147	65655	44.117217509318	1
147	65791	44.309199509318	3
147	65823	44.317497509318	1
147	65848	44.317778194506	3
147	65881	44.326076194506	1
147	65909	44.326397143639	2
147	65943	44.334695143639	1
147	66024	44.408999509318	3
147	66056	44.417297509318	1
147	66138	44.508959509318	3
147	66170	44.517257509318	1
147	66306	44.709439509318	3
147	66338	44.717737509318	1
147	66474	44.909219509318	3
147	66506	44.917517509318	1
147	66531	44.917978194506	3
147	66564	44.926276194506	1
147	66592	44.926897143639	2
147	66626	44.935195143639	1
147	66729	45.009039509318	3
147	66761	45.017337509318	1
147	66786	45.017558194506	3
147	66819	45.025856194506	1
147	66847	45.026397143639	2
147	66881	45.034695143639	1
147	66962	45.108779509318	3
147	66994	45.117077509318	1
147	67019	45.117278194506	3
147	67052	45.125576194506	1
147	67080	45.126177143639	2
147	67114	45.134475143639	1
147	67253	45.308979509318	3
147	67285	45.317277509318	1
147	67310	45.317518194506	3
147	67343	45.325816194506	1
147	67371	45.326317143639	2
147	67405	45.334615143639	1
147	67486	45.409259509318	3
147	67518	45.417557509318	1
147	67654	45.608819509318	3
147	67686	45.617117509318	1
147	67711	45.617358194506	3
147	67744	45.625656194506	1
147	67772	45.626237143639	2
147	67806	45.634535143639	1
147	67887	45.708879509318	3
147	67919	45.717177509318	1
147	68001	45.809319509318	3
147	68033	45.817617509318	1
147	68115	45.908799509318	3
147	68147	45.917097509318	1
147	68251	46.008839509318	3
147	68283	46.017137509318	1
147	68365	46.108839509318	3
147	68397	46.117137509318	1
147	68422	46.117538194506	3
147	68455	46.125836194506	1
147	68483	46.126197143639	2
147	68517	46.134495143639	1
147	68598	46.209059509318	3
147	68630	46.217357509318	1
147	68655	46.217738194506	3
147	68688	46.226036194506	1
147	68716	46.226297143639	2
147	68750	46.234595143639	1
147	68831	46.309259509318	3
147	68863	46.317557509318	1
147	68888	46.317618194506	3
147	68921	46.325916194506	1
147	68949	46.325997143639	2
147	68983	46.334295143639	1
147	69118	46.508839509318	3
147	69150	46.517137509318	1
147	69232	46.608919509318	3
147	69264	46.617217509318	1
147	69289	46.617678194506	3
147	69322	46.625976194506	1
147	69350	46.626157143639	2
147	69384	46.634455143639	1
147	69465	46.708659509318	3
147	69497	46.716957509318	1
147	69522	46.717278194506	3
147	69555	46.725576194506	1
147	69583	46.725737143639	2
147	69617	46.734035143639	1
147	69698	46.808739509318	3
147	69730	46.817037509318	1
147	69812	46.908599509318	3
147	69844	46.916897509318	1
147	69948	47.008899509318	3
147	69980	47.017197509318	1
147	70063	47.108939509318	3
147	70096	47.117237509318	1
147	70234	47.309059509318	3
147	70266	47.317357509318	1
147	70348	47.408719509318	3
147	70380	47.417017509318	1
147	70405	47.417198194506	3
147	70438	47.425496194506	1
147	70466	47.425517143639	2
147	70500	47.433815143639	1
147	70635	47.609339509318	3
147	70667	47.617637509318	1
147	70749	47.708939509318	3
147	70781	47.717237509318	1
147	70806	47.717638194506	3
147	70839	47.725936194506	1
147	70867	47.726537143639	2
147	70901	47.734835143639	1
147	70982	47.808839509318	3
147	71014	47.817137509318	1
147	71096	47.908659509318	3
147	71128	47.916957509318	1
147	71232	48.008819509318	3
147	71264	48.017117509318	1
147	71400	48.208539509318	3
147	71432	48.216837509318	1
147	71457	48.216878194506	3
147	71490	48.225176194506	1
147	71518	48.225357143639	2
147	71552	48.233655143639	1
147	71687	48.408959509318	3
147	71719	48.417257509318	1
147	71744	48.417418194506	3
147	71777	48.425716194506	1
147	71805	48.426117143639	2
147	71839	48.434415143639	1
147	71911	48.508559509318	3
147	71952	48.516857509318	1
147	71977	48.517438194506	3
147	72010	48.525736194506	1
147	72038	48.525937143639	2
147	72072	48.534235143639	1
147	72153	48.608979509318	3
147	72185	48.617277509318	1
147	72210	48.617338194506	3
147	72243	48.625636194506	1
147	72271	48.626017143639	2
147	72305	48.634315143639	1
147	72442	48.808639509318	3
147	72474	48.816937509318	1
147	72499	48.817318194506	3
147	72532	48.825616194506	1
147	72560	48.825637143639	2
147	72594	48.833935143639	1
147	72675	48.908959509318	3
147	72707	48.917257509318	1
147	72732	48.917738194506	3
147	72765	48.926036194506	1
147	72793	48.926617143639	2
147	72827	48.934915143639	1
147	72986	49.109099509318	3
147	73018	49.117397509318	1
147	73100	49.208699509318	3
147	73132	49.216997509318	1
147	73157	49.217518194506	3
147	73188	49.225816194506	1
147	73274	49.309179509318	3
147	73306	49.317477509318	1
147	73379	49.408499509318	3
147	73420	49.416797509318	1
147	73502	49.508639509318	3
147	73534	49.516937509318	1
147	73559	49.517518194506	3
147	73592	49.525816194506	1
147	73620	49.525877143639	2
147	73654	49.534175143639	1
147	73735	49.609359509318	3
147	73767	49.617657509318	1
147	74033	50.009139509318	3
147	74065	50.017437509318	1
147	74090	50.018038194506	3
147	74123	50.026336194506	1
147	74151	50.026637143639	2
147	74185	50.034935143639	1
147	74266	50.108659509318	3
147	74298	50.116957509318	1
147	74323	50.117558194506	3
147	74356	50.125856194506	1
147	74384	50.126477143639	2
147	74418	50.134775143639	1
147	74499	50.209259509318	3
147	74531	50.217557509318	1
147	74556	50.217978194506	3
147	74589	50.226276194506	1
147	74617	50.226797143639	2
147	74651	50.235095143639	1
147	74840	50.508919509318	3
147	74872	50.517217509318	1
147	74897	50.517798194506	3
147	74930	50.526096194506	1
147	74958	50.526637143639	2
147	74992	50.534935143639	1
147	75073	50.608759509318	3
147	75105	50.617057509318	1
147	75131	50.617338194506	3
147	75165	50.625636194506	1
147	75193	50.626037143639	2
147	75227	50.634335143639	1
147	75308	50.708519509318	3
147	75340	50.716817509318	1
147	75477	50.909019509318	3
147	75509	50.917317509318	1
147	75534	50.917478194506	3
147	75567	50.925776194506	1
147	75595	50.926357143639	2
147	75629	50.934655143639	1
147	75733	51.008679509318	3
147	75765	51.016977509318	1
147	75790	51.017298194506	3
147	75823	51.025596194506	1
147	75851	51.025657143639	2
147	75885	51.033955143639	1
147	76182	51.509159509318	3
147	76214	51.517457509318	1
147	76296	51.608579509318	3
147	76328	51.616877509318	1
147	76410	51.709019509318	3
147	76442	51.717317509318	1
147	76524	51.808699509318	3
147	76556	51.816997509318	1
147	76581	51.817538194506	3
147	76614	51.825836194506	1
147	76642	51.826417143639	2
147	76676	51.834715143639	1
147	76757	51.909379509318	3
147	76789	51.917677509318	1
147	76893	52.009119509318	3
147	76925	52.017417509318	1
147	77007	52.108659509318	3
147	77039	52.116957509318	1
147	77064	52.117338194506	3
147	77097	52.125636194506	1
147	77125	52.125917143639	2
147	77159	52.134215143639	1
147	77294	52.308819509318	3
147	77326	52.317117509318	1
147	77351	52.317338194506	3
147	77384	52.325636194506	1
147	77412	52.325877143639	2
147	77446	52.334175143639	1
147	77527	52.409199509318	3
147	77559	52.417497509318	1
147	77641	52.508919509318	3
147	77673	52.517217509318	1
147	77756	52.608839509318	3
147	77789	52.617137509318	1
147	77814	52.617318194506	3
147	77847	52.625616194506	1
147	77875	52.625777143639	2
147	77909	52.634075143639	1
147	77991	52.708579509318	3
147	78023	52.716877509318	1
147	78105	52.808419509318	3
147	78137	52.816717509318	1
147	78220	52.909079509318	3
147	78252	52.917377509318	1
147	78277	52.917438194506	3
147	78310	52.925736194506	1
147	78338	52.925777143639	2
147	78372	52.934075143639	1
147	78475	53.008619509318	3
147	78507	53.016917509318	1
147	78532	53.017178194506	3
147	78565	53.025476194506	1
147	78593	53.025737143639	2
147	78627	53.034035143639	1
147	78708	53.109419509318	3
147	78740	53.117717509318	1
147	78765	53.117758194506	3
147	78798	53.126056194506	1
147	78826	53.126457143639	2
147	78860	53.134755143639	1
147	78995	53.309079509318	3
147	79027	53.317377509318	1
147	79109	53.409279509318	3
147	79141	53.417577509318	1
147	79223	53.509499509318	3
147	79255	53.517797509318	1
147	79280	53.518018194506	3
147	79315	53.526316194506	1
147	79341	53.526317143639	2
147	79375	53.534615143639	1
147	79456	53.608739509318	3
147	79488	53.617037509318	1
147	79513	53.617458194506	3
147	79546	53.625756194506	1
147	79574	53.626217143639	2
147	79608	53.634515143639	1
147	79743	53.808719509318	3
147	79775	53.817017509318	1
147	79857	53.909019509318	3
147	79889	53.917317509318	1
147	79914	53.917358194506	3
147	79947	53.925656194506	1
147	79975	53.925957143639	2
147	80009	53.934255143639	1
147	80166	54.109219509318	3
147	80198	54.117517509318	1
147	80280	54.209119509318	3
147	80312	54.217417509318	1
147	80394	54.309199509318	3
147	80427	54.317497509318	1
147	80618	54.608899509318	3
147	80650	54.617197509318	1
147	80733	54.708579509318	3
147	80765	54.716877509318	1
147	80848	54.808519509318	3
147	80880	54.816817509318	1
147	80962	54.908779509318	3
147	80994	54.917077509318	1
147	81019	54.917558194506	3
147	81052	54.925856194506	1
147	81080	54.926337143639	2
147	81114	54.934635143639	1
147	81217	55.009039509318	3
147	81249	55.017337509318	1
147	81385	55.208359509318	3
147	81417	55.216657509318	1
147	81499	55.308659509318	3
147	81531	55.316957509318	1
147	81613	55.408839509318	3
147	81645	55.417137509318	1
147	81727	55.508919509318	3
147	81759	55.517217509318	1
147	81841	55.608939509318	3
147	81873	55.617237509318	1
147	81898	55.617278194506	3
147	81931	55.625576194506	1
147	81959	55.625657143639	2
147	81993	55.633955143639	1
147	82074	55.709079509318	3
147	82106	55.717377509318	1
147	82179	55.808379509318	3
147	82220	55.816677509318	1
147	82302	55.909019509318	3
147	82334	55.917317509318	1
147	82431	56.008519509318	3
147	82472	56.016817509318	1
147	82554	56.108499509318	3
147	82586	56.116797509318	1
147	82611	56.117338194506	3
147	82644	56.125636194506	1
147	82672	56.125877143639	2
147	82706	56.134175143639	1
147	82787	56.208379509318	3
147	82819	56.216677509318	1
147	82901	56.308779509318	3
147	82933	56.317077509318	1
147	82958	56.317178194506	3
147	82991	56.325476194506	1
147	83019	56.325937143639	2
147	83053	56.334235143639	1
147	83134	56.409099509318	3
147	83166	56.417397509318	1
147	83191	56.417998194506	3
147	83224	56.426296194506	1
147	83252	56.426377143639	2
147	83286	56.434675143639	1
147	83367	56.509239509318	3
147	83399	56.517537509318	1
147	83481	56.608979509318	3
147	83513	56.617277509318	1
147	83538	56.617418194506	3
147	83571	56.625716194506	1
147	83599	56.626137143639	2
147	83633	56.634435143639	1
147	83716	56.708959509318	3
147	83748	56.717257509318	1
147	83773	56.717758194506	3
147	83806	56.726056194506	1
147	83834	56.726257143639	2
147	83868	56.734555143639	1
147	83949	56.809239509318	3
147	83981	56.817537509318	1
147	84006	56.818138194506	3
147	84039	56.826436194506	1
147	84067	56.826977143639	2
147	84101	56.835275143639	1
147	84182	56.908899509318	3
147	84214	56.917197509318	1
147	84372	57.109059509318	3
147	84404	57.117357509318	1
147	84486	57.208959509318	3
147	84518	57.217257509318	1
147	84543	57.217678194506	3
147	84576	57.225976194506	1
147	84604	57.226557143639	2
147	84638	57.234855143639	1
147	84719	57.308599509318	3
147	84751	57.316897509318	1
147	84776	57.317378194506	3
147	84809	57.325676194506	1
147	84837	57.326177143639	2
147	84871	57.334475143639	1
147	84952	57.409219509318	3
147	84984	57.417517509318	1
147	85066	57.509279509318	3
147	85098	57.517577509318	1
147	85180	57.609339509318	3
147	85213	57.617637509318	1
147	85296	57.708979509318	3
147	85328	57.717277509318	1
147	85410	57.808779509318	3
147	85442	57.817077509318	1
147	85524	57.908979509318	3
147	85556	57.917277509318	1
147	85660	58.009119509318	3
147	85692	58.017417509318	1
147	85774	58.108659509318	3
147	85806	58.116957509318	1
147	85888	58.208959509318	3
147	85920	58.217257509318	1
147	86002	58.308939509318	3
147	86034	58.317237509318	1
147	86059	58.317518194506	3
147	86092	58.325816194506	1
147	86120	58.326217143639	2
147	86154	58.334515143639	1
147	86235	58.409399509318	3
147	86267	58.417697509318	1
147	86292	58.417858194506	3
147	86325	58.426156194506	1
147	86353	58.426397143639	2
147	86387	58.434695143639	1
147	86468	58.509459509318	3
147	86500	58.517757509318	1
147	86525	58.517818194506	3
147	86558	58.526116194506	1
147	86586	58.526477143639	2
147	86620	58.534775143639	1
147	86702	58.608599509318	3
147	86735	58.616897509318	1
147	86871	58.809119509318	3
147	86903	58.817417509318	1
147	86985	58.908859509318	3
147	87017	58.917157509318	1
147	87121	59.009239509318	3
147	87153	59.017537509318	1
147	87178	59.017998194506	3
147	87211	59.026296194506	1
147	87239	59.026917143639	2
147	87273	59.035215143639	1
147	87354	59.109239509318	3
147	87386	59.117537509318	1
147	87411	59.117558194506	3
147	87444	59.125856194506	1
147	87472	59.126417143639	2
147	87506	59.134715143639	1
147	87641	59.309279509318	3
147	87674	59.317577509318	1
147	87757	59.408819509318	3
147	87789	59.417117509318	1
147	87925	59.609139509318	3
147	87957	59.617437509318	1
147	88039	59.708519509318	3
147	88071	59.716817509318	1
147	88153	59.809279509318	3
147	88185	59.817577509318	1
147	88267	59.909119509318	3
147	88299	59.917417509318	1
147	88324	59.917598194506	3
147	88357	59.925896194506	1
147	88385	59.926017143639	2
147	88419	59.934315143639	1
148	1045	0.428168096713	1
148	1046	0.428168096713	2
148	1072	0.428658096713	1
148	1072	0.428658096713	0
148	2084	0.906790981656	1
148	2085	0.906790981656	2
148	2107	0.907280981656	1
148	2107	0.907280981656	0
