version 2
run Host20_20pps-0-20161107-11:46:12-5180
attr configname Host20_20pps
attr datetime 20161107-11:46:12
attr experiment Host20_20pps
attr inifile omnetpp_20.ini
attr iterationvars ""
attr iterationvars2 $repetition=0
attr measurement ""
attr network arb_png.car_host_20
attr processid 5180
attr repetition 0
attr replication #0
attr resultdir results
attr runnumber 0
attr seedset 0
param **.aodv.activeRouteTimeout 2s
param *.configurator.addStaticRoutes false
param *.configurator.config "xml(\"<config><interface hosts='**' address='10.0.0.x' netmask='255.255.255.0'/><autoroute metric='errorRate'/></config>\")"
param *.configurator.optimizeRoutes true
param *.host*.**.bitrate 1Mbps
param *.host*.networkLayer.arpType "\"GlobalARP\""
param *.host*.routingTable.netmaskRoutes "\"\""
param *.host*.wlan[0].mac.maxQueueSize 15
param *.host*.wlan[0].mac.useAck false
param *.host*.wlan[0].macType "\"CsmaCaMac\""
param *.host*.wlan[0].radio.bandwidth 2MHz
param *.host*.wlan[0].radio.carrierFrequency 2GHz
param *.host*.wlan[0].radio.displayCommunicationRange true
param *.host*.wlan[0].radio.displayInterferenceRange true
param *.host*.wlan[0].radio.receiver.energyDetection -85dBm
param *.host*.wlan[0].radio.receiver.ignoreInterference false
param *.host*.wlan[0].radio.receiver.sensitivity -85dBm
param *.host*.wlan[0].radio.receiver.snirThreshold 4dB
param *.host*.wlan[0].radio.transmitter.communicationRange 200m
param *.host*.wlan[0].radio.transmitter.headerBitLength 0b
param *.host*.wlan[0].radio.transmitter.power 1.4mW
param *.host*.wlan[0].radio.transmitter.preambleDuration 10us
param *.host*.wlan[0].radioType "\"APSKScalarRadio\""
param *.host*.wlan[0].typename "\"WirelessNic\""
param *.hostA.numUdpApps 1
param *.hostA.udpApp[0].destAddresses "\"hostD\""
param *.hostA.udpApp[0].destPort 5000
param *.hostA.udpApp[0].messageLength 1000B
param *.hostA.udpApp[0].packetName "\"Data\""
param *.hostA.udpApp[0].sendInterval 50ms
param *.hostA.udpApp[0].typename "\"UDPBasicApp\""
param *.hostD.numUdpApps 1
param *.hostD.udpApp[0].localPort 5000
param *.hostD.udpApp[0].typename "\"UDPSink\""
param *.hostType "\"AODVRouter\""
param *.mediumType "\"APSKScalarRadioMedium\""
param *.radioMedium.backgroundNoise.power -90dBm
param *.radioMedium.mediumLimitCache.carrierFrequency 2GHz
param *.visualizer.dataLinkVisualizer.packetNameFilter "\"AODV*\""
param *.visualizer.mediumVisualizer.signalPropagationUpdateInterval 100ns
param *.visualizer.mobilityVisualizer.displayMovementTrail true
param *.visualizer.networkRouteVisualizer.packetNameFilter "\"UDPData*\""
param *.visualizer.sceneVisualizer.descriptionFigure "\"title\""

vector 161  car_host_20.hostA.wlan[0].radio  radioMode:vector  ETV
attr interpolationmode  sample-hold
attr source  radioModeChanged
attr title  "Radio mode, vector"
vector 175  car_host_20.hostD.wlan[0].radio  radioMode:vector  ETV
attr interpolationmode  sample-hold
attr source  radioModeChanged
attr title  "Radio mode, vector"
vector 181  car_host_20.hostB.wlan[0].radio  radioMode:vector  ETV
attr interpolationmode  sample-hold
attr source  radioModeChanged
attr title  "Radio mode, vector"
vector 187  car_host_20.hostC.wlan[0].radio  radioMode:vector  ETV
attr interpolationmode  sample-hold
attr source  radioModeChanged
attr title  "Radio mode, vector"
vector 193  car_host_20.hostB1.wlan[0].radio  radioMode:vector  ETV
attr interpolationmode  sample-hold
attr source  radioModeChanged
attr title  "Radio mode, vector"
vector 199  car_host_20.hostB2.wlan[0].radio  radioMode:vector  ETV
attr interpolationmode  sample-hold
attr source  radioModeChanged
attr title  "Radio mode, vector"
vector 205  car_host_20.hostB3.wlan[0].radio  radioMode:vector  ETV
attr interpolationmode  sample-hold
attr source  radioModeChanged
attr title  "Radio mode, vector"
vector 211  car_host_20.hostB4.wlan[0].radio  radioMode:vector  ETV
attr interpolationmode  sample-hold
attr source  radioModeChanged
attr title  "Radio mode, vector"
vector 217  car_host_20.hostC1.wlan[0].radio  radioMode:vector  ETV
attr interpolationmode  sample-hold
attr source  radioModeChanged
attr title  "Radio mode, vector"
vector 223  car_host_20.hostC2.wlan[0].radio  radioMode:vector  ETV
attr interpolationmode  sample-hold
attr source  radioModeChanged
attr title  "Radio mode, vector"
vector 229  car_host_20.hostC3.wlan[0].radio  radioMode:vector  ETV
attr interpolationmode  sample-hold
attr source  radioModeChanged
attr title  "Radio mode, vector"
vector 235  car_host_20.hostC4.wlan[0].radio  radioMode:vector  ETV
attr interpolationmode  sample-hold
attr source  radioModeChanged
attr title  "Radio mode, vector"
vector 241  car_host_20.hostC5.wlan[0].radio  radioMode:vector  ETV
attr interpolationmode  sample-hold
attr source  radioModeChanged
attr title  "Radio mode, vector"
vector 247  car_host_20.hostB5.wlan[0].radio  radioMode:vector  ETV
attr interpolationmode  sample-hold
attr source  radioModeChanged
attr title  "Radio mode, vector"
vector 253  car_host_20.hostB6.wlan[0].radio  radioMode:vector  ETV
attr interpolationmode  sample-hold
attr source  radioModeChanged
attr title  "Radio mode, vector"
vector 259  car_host_20.hostB7.wlan[0].radio  radioMode:vector  ETV
attr interpolationmode  sample-hold
attr source  radioModeChanged
attr title  "Radio mode, vector"
vector 265  car_host_20.hostB8.wlan[0].radio  radioMode:vector  ETV
attr interpolationmode  sample-hold
attr source  radioModeChanged
attr title  "Radio mode, vector"
vector 271  car_host_20.hostC6.wlan[0].radio  radioMode:vector  ETV
attr interpolationmode  sample-hold
attr source  radioModeChanged
attr title  "Radio mode, vector"
vector 277  car_host_20.hostC7.wlan[0].radio  radioMode:vector  ETV
attr interpolationmode  sample-hold
attr source  radioModeChanged
attr title  "Radio mode, vector"
vector 283  car_host_20.hostB9.wlan[0].radio  radioMode:vector  ETV
attr interpolationmode  sample-hold
attr source  radioModeChanged
attr title  "Radio mode, vector"
vector 289  car_host_20.hostC8.wlan[0].radio  radioMode:vector  ETV
attr interpolationmode  sample-hold
attr source  radioModeChanged
attr title  "Radio mode, vector"
vector 295  car_host_20.hostC9.wlan[0].radio  radioMode:vector  ETV
attr interpolationmode  sample-hold
attr source  radioModeChanged
attr title  "Radio mode, vector"
vector 162  car_host_20.hostA.wlan[0].radio  receptionState:vector  ETV
attr interpolationmode  sample-hold
attr source  receptionStateChanged
attr title  "Radio reception state, vector"
vector 176  car_host_20.hostD.wlan[0].radio  receptionState:vector  ETV
attr interpolationmode  sample-hold
attr source  receptionStateChanged
attr title  "Radio reception state, vector"
vector 182  car_host_20.hostB.wlan[0].radio  receptionState:vector  ETV
attr interpolationmode  sample-hold
attr source  receptionStateChanged
attr title  "Radio reception state, vector"
vector 188  car_host_20.hostC.wlan[0].radio  receptionState:vector  ETV
attr interpolationmode  sample-hold
attr source  receptionStateChanged
attr title  "Radio reception state, vector"
vector 194  car_host_20.hostB1.wlan[0].radio  receptionState:vector  ETV
attr interpolationmode  sample-hold
attr source  receptionStateChanged
attr title  "Radio reception state, vector"
vector 200  car_host_20.hostB2.wlan[0].radio  receptionState:vector  ETV
attr interpolationmode  sample-hold
attr source  receptionStateChanged
attr title  "Radio reception state, vector"
vector 206  car_host_20.hostB3.wlan[0].radio  receptionState:vector  ETV
attr interpolationmode  sample-hold
attr source  receptionStateChanged
attr title  "Radio reception state, vector"
vector 212  car_host_20.hostB4.wlan[0].radio  receptionState:vector  ETV
attr interpolationmode  sample-hold
attr source  receptionStateChanged
attr title  "Radio reception state, vector"
vector 218  car_host_20.hostC1.wlan[0].radio  receptionState:vector  ETV
attr interpolationmode  sample-hold
attr source  receptionStateChanged
attr title  "Radio reception state, vector"
vector 224  car_host_20.hostC2.wlan[0].radio  receptionState:vector  ETV
attr interpolationmode  sample-hold
attr source  receptionStateChanged
attr title  "Radio reception state, vector"
vector 230  car_host_20.hostC3.wlan[0].radio  receptionState:vector  ETV
attr interpolationmode  sample-hold
attr source  receptionStateChanged
attr title  "Radio reception state, vector"
vector 236  car_host_20.hostC4.wlan[0].radio  receptionState:vector  ETV
attr interpolationmode  sample-hold
attr source  receptionStateChanged
attr title  "Radio reception state, vector"
vector 242  car_host_20.hostC5.wlan[0].radio  receptionState:vector  ETV
attr interpolationmode  sample-hold
attr source  receptionStateChanged
attr title  "Radio reception state, vector"
vector 248  car_host_20.hostB5.wlan[0].radio  receptionState:vector  ETV
attr interpolationmode  sample-hold
attr source  receptionStateChanged
attr title  "Radio reception state, vector"
vector 254  car_host_20.hostB6.wlan[0].radio  receptionState:vector  ETV
attr interpolationmode  sample-hold
attr source  receptionStateChanged
attr title  "Radio reception state, vector"
vector 260  car_host_20.hostB7.wlan[0].radio  receptionState:vector  ETV
attr interpolationmode  sample-hold
attr source  receptionStateChanged
attr title  "Radio reception state, vector"
vector 266  car_host_20.hostB8.wlan[0].radio  receptionState:vector  ETV
attr interpolationmode  sample-hold
attr source  receptionStateChanged
attr title  "Radio reception state, vector"
vector 272  car_host_20.hostC6.wlan[0].radio  receptionState:vector  ETV
attr interpolationmode  sample-hold
attr source  receptionStateChanged
attr title  "Radio reception state, vector"
vector 278  car_host_20.hostC7.wlan[0].radio  receptionState:vector  ETV
attr interpolationmode  sample-hold
attr source  receptionStateChanged
attr title  "Radio reception state, vector"
vector 284  car_host_20.hostB9.wlan[0].radio  receptionState:vector  ETV
attr interpolationmode  sample-hold
attr source  receptionStateChanged
attr title  "Radio reception state, vector"
vector 290  car_host_20.hostC8.wlan[0].radio  receptionState:vector  ETV
attr interpolationmode  sample-hold
attr source  receptionStateChanged
attr title  "Radio reception state, vector"
vector 296  car_host_20.hostC9.wlan[0].radio  receptionState:vector  ETV
attr interpolationmode  sample-hold
attr source  receptionStateChanged
attr title  "Radio reception state, vector"
vector 150  car_host_20.hostA.udpApp[0]  sentPk:vector(packetBytes)  ETV
attr interpolationmode  none
attr source  sentPk
attr title  "packets sent, vector(packetBytes)"
vector 153  car_host_20.hostA.udp  sentPk:vector(packetBytes)  ETV
attr interpolationmode  none
attr source  sentPk
attr title  "packets sent, vector(packetBytes)"
vector 163  car_host_20.hostA.wlan[0].radio  transmissionState:vector  ETV
attr interpolationmode  sample-hold
attr source  transmissionStateChanged
attr title  "Radio transmission state, vector"
vector 285  car_host_20.hostB9.wlan[0].radio  transmissionState:vector  ETV
attr interpolationmode  sample-hold
attr source  transmissionStateChanged
attr title  "Radio transmission state, vector"
vector 195  car_host_20.hostB1.wlan[0].radio  transmissionState:vector  ETV
attr interpolationmode  sample-hold
attr source  transmissionStateChanged
attr title  "Radio transmission state, vector"
vector 213  car_host_20.hostB4.wlan[0].radio  transmissionState:vector  ETV
attr interpolationmode  sample-hold
attr source  transmissionStateChanged
attr title  "Radio transmission state, vector"
vector 267  car_host_20.hostB8.wlan[0].radio  transmissionState:vector  ETV
attr interpolationmode  sample-hold
attr source  transmissionStateChanged
attr title  "Radio transmission state, vector"
vector 255  car_host_20.hostB6.wlan[0].radio  transmissionState:vector  ETV
attr interpolationmode  sample-hold
attr source  transmissionStateChanged
attr title  "Radio transmission state, vector"
vector 183  car_host_20.hostB.wlan[0].radio  transmissionState:vector  ETV
attr interpolationmode  sample-hold
attr source  transmissionStateChanged
attr title  "Radio transmission state, vector"
vector 207  car_host_20.hostB3.wlan[0].radio  transmissionState:vector  ETV
attr interpolationmode  sample-hold
attr source  transmissionStateChanged
attr title  "Radio transmission state, vector"
vector 225  car_host_20.hostC2.wlan[0].radio  transmissionState:vector  ETV
attr interpolationmode  sample-hold
attr source  transmissionStateChanged
attr title  "Radio transmission state, vector"
vector 261  car_host_20.hostB7.wlan[0].radio  transmissionState:vector  ETV
attr interpolationmode  sample-hold
attr source  transmissionStateChanged
attr title  "Radio transmission state, vector"
vector 249  car_host_20.hostB5.wlan[0].radio  transmissionState:vector  ETV
attr interpolationmode  sample-hold
attr source  transmissionStateChanged
attr title  "Radio transmission state, vector"
vector 231  car_host_20.hostC3.wlan[0].radio  transmissionState:vector  ETV
attr interpolationmode  sample-hold
attr source  transmissionStateChanged
attr title  "Radio transmission state, vector"
vector 297  car_host_20.hostC9.wlan[0].radio  transmissionState:vector  ETV
attr interpolationmode  sample-hold
attr source  transmissionStateChanged
attr title  "Radio transmission state, vector"
vector 243  car_host_20.hostC5.wlan[0].radio  transmissionState:vector  ETV
attr interpolationmode  sample-hold
attr source  transmissionStateChanged
attr title  "Radio transmission state, vector"
vector 189  car_host_20.hostC.wlan[0].radio  transmissionState:vector  ETV
attr interpolationmode  sample-hold
attr source  transmissionStateChanged
attr title  "Radio transmission state, vector"
vector 201  car_host_20.hostB2.wlan[0].radio  transmissionState:vector  ETV
attr interpolationmode  sample-hold
attr source  transmissionStateChanged
attr title  "Radio transmission state, vector"
vector 177  car_host_20.hostD.wlan[0].radio  transmissionState:vector  ETV
attr interpolationmode  sample-hold
attr source  transmissionStateChanged
attr title  "Radio transmission state, vector"
vector 279  car_host_20.hostC7.wlan[0].radio  transmissionState:vector  ETV
attr interpolationmode  sample-hold
attr source  transmissionStateChanged
attr title  "Radio transmission state, vector"
vector 291  car_host_20.hostC8.wlan[0].radio  transmissionState:vector  ETV
attr interpolationmode  sample-hold
attr source  transmissionStateChanged
attr title  "Radio transmission state, vector"
vector 237  car_host_20.hostC4.wlan[0].radio  transmissionState:vector  ETV
attr interpolationmode  sample-hold
attr source  transmissionStateChanged
attr title  "Radio transmission state, vector"
vector 219  car_host_20.hostC1.wlan[0].radio  transmissionState:vector  ETV
attr interpolationmode  sample-hold
attr source  transmissionStateChanged
attr title  "Radio transmission state, vector"
vector 273  car_host_20.hostC6.wlan[0].radio  transmissionState:vector  ETV
attr interpolationmode  sample-hold
attr source  transmissionStateChanged
attr title  "Radio transmission state, vector"
vector 168  car_host_20.hostD.udp  rcvdPk:vector(packetBytes)  ETV
attr interpolationmode  none
attr source  rcvdPk
attr title  "packets received, vector(packetBytes)"
vector 169  car_host_20.hostD.udp  passedUpPk:vector(count)  ETV
attr interpolationmode  none
attr title  "packets passed up, vector(count)"
vector 164  car_host_20.hostD.udpApp[0]  rcvdPk:vector(packetBytes)  ETV
attr interpolationmode  none
attr source  rcvdPk
attr title  "packets received, vector(packetBytes)"
vector 165  car_host_20.hostD.udpApp[0]  endToEndDelay:vector  ETV
attr interpolationmode  none
attr source  messageAge(rcvdPk)
attr title  "end-to-end delay, vector"
attr unit  s
vector 166  car_host_20.hostD.udpApp[0]  rcvdPkSeqNo:vector  ETV
attr interpolationmode  none
attr source  appPkSeqNo(rcvdPk)
attr title  "received packet sequence number, vector"
150	72	0.05	1000
150	427	0.1	1000
150	430	0.15	1000
150	433	0.2	1000
150	436	0.25	1000
150	439	0.3	1000
150	442	0.35	1000
150	1841	0.4	1000
150	1844	0.45	1000
150	1847	0.5	1000
150	1850	0.55	1000
150	1853	0.6	1000
150	1856	0.65	1000
150	1859	0.7	1000
150	1862	0.75	1000
150	1865	0.8	1000
150	1869	0.85	1000
150	3824	0.9	1000
150	4324	0.95	1000
150	4700	1	1000
150	5102	1.05	1000
150	5349	1.1	1000
150	5403	1.15	1000
150	5576	1.2	1000
150	5749	1.25	1000
150	5922	1.3	1000
150	6095	1.35	1000
150	6268	1.4	1000
150	6558	1.45	1000
150	6849	1.5	1000
150	6904	1.55	1000
150	7077	1.6	1000
150	7250	1.65	1000
150	7423	1.7	1000
150	7713	1.75	1000
150	7768	1.8	1000
150	8058	1.85	1000
150	8349	1.9	1000
150	8523	1.95	1000
150	8718	2	1000
150	8891	2.05	1000
150	9181	2.1	1000
150	9355	2.15	1000
150	9409	2.2	1000
150	9582	2.25	1000
150	9755	2.3	1000
150	9928	2.35	1000
150	10248	2.4	1000
150	10303	2.45	1000
150	10357	2.5	1000
150	10647	2.55	1000
150	10938	2.6	1000
150	11112	2.65	1000
150	11402	2.7	1000
150	11693	2.75	1000
150	11867	2.8	1000
150	12157	2.85	1000
150	12469	2.9	1000
150	12759	2.95	1000
150	12955	3	1000
150	13128	3.05	1000
150	13418	3.1	1000
150	13592	3.15	1000
150	13765	3.2	1000
150	13819	3.25	1000
150	13992	3.3	1000
150	14165	3.35	1000
150	14455	3.4	1000
150	14746	3.45	1000
150	14920	3.5	1000
150	15093	3.55	1000
150	15266	3.6	1000
150	15439	3.65	1000
150	15729	3.7	1000
150	15784	3.75	1000
150	15957	3.8	1000
150	16130	3.85	1000
150	16184	3.9	1000
150	16238	3.95	1000
150	16433	4	1000
150	16606	4.05	1000
150	16779	4.1	1000
150	17069	4.15	1000
150	17360	4.2	1000
150	17534	4.25	1000
150	17824	4.3	1000
150	17879	4.35	1000
150	18052	4.4	1000
150	18106	4.45	1000
150	18396	4.5	1000
150	18687	4.55	1000
150	18978	4.6	1000
150	19269	4.65	1000
150	19324	4.7	1000
150	19497	4.75	1000
150	19787	4.8	1000
150	20082	4.85	1000
150	20374	4.9	1000
150	20548	4.95	1000
150	20624	5	1000
150	20678	5.05	1000
150	20732	5.1	1000
150	20905	5.15	1000
150	21078	5.2	1000
150	21368	5.25	1000
150	21542	5.3	1000
150	21832	5.35	1000
150	22006	5.4	1000
150	22060	5.45	1000
150	22233	5.5	1000
150	22287	5.55	1000
150	22460	5.6	1000
150	22750	5.65	1000
150	23041	5.7	1000
150	23215	5.75	1000
150	23388	5.8	1000
150	23678	5.85	1000
150	23852	5.9	1000
150	24025	5.95	1000
150	24220	6	1000
150	24510	6.05	1000
150	24566	6.1	1000
150	24621	6.15	1000
150	24911	6.2	1000
150	24971	6.25	1000
150	25151	6.3	1000
150	25205	6.35	1000
150	25381	6.4	1000
150	25435	6.45	1000
150	25489	6.5	1000
150	25662	6.55	1000
150	25835	6.6	1000
150	26008	6.65	1000
150	26181	6.7	1000
150	26354	6.75	1000
150	26529	6.8	1000
150	26585	6.85	1000
150	26759	6.9	1000
150	26932	6.95	1000
150	27127	7	1000
150	27417	7.05	1000
150	27591	7.1	1000
150	27764	7.15	1000
150	27818	7.2	1000
150	27991	7.25	1000
150	28164	7.3	1000
150	28218	7.35	1000
150	28272	7.4	1000
150	28562	7.45	1000
150	28736	7.5	1000
150	28909	7.55	1000
150	29199	7.6	1000
150	29254	7.65	1000
150	29308	7.7	1000
150	29481	7.75	1000
150	29654	7.8	1000
150	29708	7.85	1000
150	29881	7.9	1000
150	30113	7.95	1000
150	30308	8	1000
150	30481	8.05	1000
150	30654	8.1	1000
150	30944	8.15	1000
150	31120	8.2	1000
150	31293	8.25	1000
150	31466	8.3	1000
150	31639	8.35	1000
150	31812	8.4	1000
150	31985	8.45	1000
150	32275	8.5	1000
150	32330	8.55	1000
150	32384	8.6	1000
150	32557	8.65	1000
150	32730	8.7	1000
150	33021	8.75	1000
150	33078	8.8	1000
150	33251	8.85	1000
150	33424	8.9	1000
150	33597	8.95	1000
150	33909	9	1000
150	34200	9.05	1000
150	34374	9.1	1000
150	34664	9.15	1000
150	34838	9.2	1000
150	35128	9.25	1000
150	35419	9.3	1000
150	35474	9.35	1000
150	35528	9.4	1000
150	35701	9.45	1000
150	35991	9.5	1000
150	36165	9.55	1000
150	36219	9.6	1000
150	36392	9.65	1000
150	36565	9.7	1000
150	36738	9.75	1000
150	37028	9.8	1000
150	37202	9.85	1000
150	37256	9.9	1000
150	37429	9.95	1000
150	37741	10	1000
150	38032	10.05	1000
150	38206	10.1	1000
150	38498	10.15	1000
150	38672	10.2	1000
150	38845	10.25	1000
150	38899	10.3	1000
150	39072	10.35	1000
150	39245	10.4	1000
150	39418	10.45	1000
150	39591	10.5	1000
150	39764	10.55	1000
150	39818	10.6	1000
150	39991	10.65	1000
150	40046	10.7	1000
150	40102	10.75	1000
150	40275	10.8	1000
150	40448	10.85	1000
150	40502	10.9	1000
150	40792	10.95	1000
150	40988	11	1000
150	41278	11.05	1000
150	41333	11.1	1000
150	41623	11.15	1000
150	41914	11.2	1000
150	42205	11.25	1000
150	42379	11.3	1000
150	42552	11.35	1000
150	42725	11.4	1000
150	42898	11.45	1000
150	43188	11.5	1000
150	43362	11.55	1000
150	43416	11.6	1000
150	43589	11.65	1000
150	43762	11.7	1000
150	43935	11.75	1000
150	44108	11.8	1000
150	44281	11.85	1000
150	44454	11.9	1000
150	44627	11.95	1000
150	44703	12	1000
150	44995	12.05	1000
150	45169	12.1	1000
150	45342	12.15	1000
150	45515	12.2	1000
150	45688	12.25	1000
150	45978	12.3	1000
150	46152	12.35	1000
150	46355	12.4	1000
150	46409	12.45	1000
150	46699	12.5	1000
150	46873	12.55	1000
150	46927	12.6	1000
150	46982	12.65	1000
150	47036	12.7	1000
150	47209	12.75	1000
150	47382	12.8	1000
150	47555	12.85	1000
150	47982	12.9	1000
150	48156	12.95	1000
150	48351	13	1000
150	48524	13.05	1000
150	48697	13.1	1000
150	48987	13.15	1000
150	49278	13.2	1000
150	49569	13.25	1000
150	49860	13.3	1000
150	50151	13.35	1000
150	50206	13.4	1000
150	50496	13.45	1000
150	50551	13.5	1000
150	50724	13.55	1000
150	50778	13.6	1000
150	51068	13.65	1000
150	51242	13.7	1000
150	51415	13.75	1000
150	51588	13.8	1000
150	51761	13.85	1000
150	51815	13.9	1000
150	51988	13.95	1000
150	52183	14	1000
150	52237	14.05	1000
150	52527	14.1	1000
150	52701	14.15	1000
150	52991	14.2	1000
150	53165	14.25	1000
150	53338	14.3	1000
150	53511	14.35	1000
150	53565	14.4	1000
150	53738	14.45	1000
150	53794	14.5	1000
150	53848	14.55	1000
150	53902	14.6	1000
150	54192	14.65	1000
150	54483	14.7	1000
150	54538	14.75	1000
150	54711	14.8	1000
150	54886	14.85	1000
150	54941	14.9	1000
150	54995	14.95	1000
150	55307	15	1000
150	55362	15.05	1000
150	55652	15.1	1000
150	55707	15.15	1000
150	55761	15.2	1000
150	55934	15.25	1000
150	56107	15.3	1000
150	56397	15.35	1000
150	56571	15.4	1000
150	56625	15.45	1000
150	56679	15.5	1000
150	56733	15.55	1000
150	56906	15.6	1000
150	57079	15.65	1000
150	57252	15.7	1000
150	57425	15.75	1000
150	57598	15.8	1000
150	57888	15.85	1000
150	58062	15.9	1000
150	58116	15.95	1000
150	58311	16	1000
150	58365	16.05	1000
150	58539	16.1	1000
150	58713	16.15	1000
150	59005	16.2	1000
150	59184	16.25	1000
150	59364	16.3	1000
150	59418	16.35	1000
150	59475	16.4	1000
150	59648	16.45	1000
150	59821	16.5	1000
150	59875	16.55	1000
150	60048	16.6	1000
150	60102	16.65	1000
150	60156	16.7	1000
150	60329	16.75	1000
150	60504	16.8	1000
150	60795	16.85	1000
150	60969	16.9	1000
150	61142	16.95	1000
150	61218	17	1000
150	61508	17.05	1000
150	61799	17.1	1000
150	61973	17.15	1000
150	62263	17.2	1000
150	62437	17.25	1000
150	62610	17.3	1000
150	62664	17.35	1000
150	62837	17.4	1000
150	63010	17.45	1000
150	63183	17.5	1000
150	63473	17.55	1000
150	63647	17.6	1000
150	63701	17.65	1000
150	63755	17.7	1000
150	63928	17.75	1000
150	64218	17.8	1000
150	64394	17.85	1000
150	64567	17.9	1000
150	64740	17.95	1000
150	65052	18	1000
150	65343	18.05	1000
150	65517	18.1	1000
150	65690	18.15	1000
150	65863	18.2	1000
150	66153	18.25	1000
150	66327	18.3	1000
150	66617	18.35	1000
150	66791	18.4	1000
150	67081	18.45	1000
150	67136	18.5	1000
150	67426	18.55	1000
150	67481	18.6	1000
150	67654	18.65	1000
150	67827	18.7	1000
150	68001	18.75	1000
150	68292	18.8	1000
150	68348	18.85	1000
150	68521	18.9	1000
150	68575	18.95	1000
150	68770	19	1000
150	68943	19.05	1000
150	69116	19.1	1000
150	69289	19.15	1000
150	69462	19.2	1000
150	69516	19.25	1000
150	69689	19.3	1000
150	69979	19.35	1000
150	70034	19.4	1000
150	70207	19.45	1000
150	70497	19.5	1000
150	70788	19.55	1000
150	70962	19.6	1000
150	71135	19.65	1000
150	71425	19.7	1000
150	71716	19.75	1000
150	71892	19.8	1000
150	72065	19.85	1000
150	72238	19.9	1000
150	72528	19.95	1000
150	72605	20	1000
150	72895	20.05	1000
150	73186	20.1	1000
150	73360	20.15	1000
150	73533	20.2	1000
150	73706	20.25	1000
150	73879	20.3	1000
150	74052	20.35	1000
150	74342	20.4	1000
150	74516	20.45	1000
150	74689	20.5	1000
150	74862	20.55	1000
150	75152	20.6	1000
150	75326	20.65	1000
150	75500	20.7	1000
150	75674	20.75	1000
150	75965	20.8	1000
150	76139	20.85	1000
150	76193	20.9	1000
150	76366	20.95	1000
150	76561	21	1000
150	76734	21.05	1000
150	77024	21.1	1000
150	77079	21.15	1000
150	77133	21.2	1000
150	77187	21.25	1000
150	77360	21.3	1000
150	77533	21.35	1000
150	77587	21.4	1000
150	77760	21.45	1000
150	77814	21.5	1000
150	77868	21.55	1000
150	78041	21.6	1000
150	78095	21.65	1000
150	78385	21.7	1000
150	78678	21.75	1000
150	78733	21.8	1000
150	78906	21.85	1000
150	79196	21.9	1000
150	79370	21.95	1000
150	79565	22	1000
150	79619	22.05	1000
150	79792	22.1	1000
150	80082	22.15	1000
150	80373	22.2	1000
150	80547	22.25	1000
150	80601	22.3	1000
150	80891	22.35	1000
150	80946	22.4	1000
150	81236	22.45	1000
150	81410	22.5	1000
150	81700	22.55	1000
150	81755	22.6	1000
150	82046	22.65	1000
150	82101	22.7	1000
150	82276	22.75	1000
150	82330	22.8	1000
150	82503	22.85	1000
150	82557	22.9	1000
150	82847	22.95	1000
150	83043	23	1000
150	83216	23.05	1000
150	83389	23.1	1000
150	83562	23.15	1000
150	83616	23.2	1000
150	83789	23.25	1000
150	83962	23.3	1000
150	84252	23.35	1000
150	84543	23.4	1000
150	84717	23.45	1000
150	84771	23.5	1000
150	84944	23.55	1000
150	84998	23.6	1000
150	85052	23.65	1000
150	85342	23.7	1000
150	85399	23.75	1000
150	85689	23.8	1000
150	85863	23.85	1000
150	86036	23.9	1000
150	86326	23.95	1000
150	86403	24	1000
150	86457	24.05	1000
150	86630	24.1	1000
150	86803	24.15	1000
150	86976	24.2	1000
150	87149	24.25	1000
150	87439	24.3	1000
150	87730	24.35	1000
150	87904	24.4	1000
150	87958	24.45	1000
150	88131	24.5	1000
150	88304	24.55	1000
150	88478	24.6	1000
150	88653	24.65	1000
150	88826	24.7	1000
150	88999	24.75	1000
150	89172	24.8	1000
150	89226	24.85	1000
150	89280	24.9	1000
150	89334	24.95	1000
150	89529	25	1000
150	89819	25.05	1000
150	90110	25.1	1000
150	90284	25.15	1000
150	90574	25.2	1000
150	90629	25.25	1000
150	90802	25.3	1000
150	90975	25.35	1000
150	91148	25.4	1000
150	91321	25.45	1000
150	91375	25.5	1000
150	91429	25.55	1000
150	91602	25.6	1000
150	91775	25.65	1000
150	92067	25.7	1000
150	92122	25.75	1000
150	92295	25.8	1000
150	92468	25.85	1000
150	92641	25.9	1000
150	92814	25.95	1000
150	93126	26	1000
150	93300	26.05	1000
150	93590	26.1	1000
150	93764	26.15	1000
150	93937	26.2	1000
150	94110	26.25	1000
150	94283	26.3	1000
150	94337	26.35	1000
150	94391	26.4	1000
150	94681	26.45	1000
150	94855	26.5	1000
150	95029	26.55	1000
150	95204	26.6	1000
150	95258	26.65	1000
150	95312	26.7	1000
150	95366	26.75	1000
150	95539	26.8	1000
150	95712	26.85	1000
150	95766	26.9	1000
150	95939	26.95	1000
150	96134	27	1000
150	96307	27.05	1000
150	96597	27.1	1000
150	96771	27.15	1000
150	96826	27.2	1000
150	97116	27.25	1000
150	97290	27.3	1000
150	97463	27.35	1000
150	97753	27.4	1000
150	97808	27.45	1000
150	97981	27.5	1000
150	98271	27.55	1000
150	98445	27.6	1000
150	98618	27.65	1000
150	98673	27.7	1000
150	98727	27.75	1000
150	98781	27.8	1000
150	98954	27.85	1000
150	99008	27.9	1000
150	99062	27.95	1000
150	99374	28	1000
150	99548	28.05	1000
150	99721	28.1	1000
150	99894	28.15	1000
150	100067	28.2	1000
150	100240	28.25	1000
150	100294	28.3	1000
150	100348	28.35	1000
150	100402	28.4	1000
150	100575	28.45	1000
150	100749	28.5	1000
150	100924	28.55	1000
150	101097	28.6	1000
150	101270	28.65	1000
150	101443	28.7	1000
150	101497	28.75	1000
150	101670	28.8	1000
150	101843	28.85	1000
150	102016	28.9	1000
150	102306	28.95	1000
150	102383	29	1000
150	102673	29.05	1000
150	102848	29.1	1000
150	103021	29.15	1000
150	103194	29.2	1000
150	103367	29.25	1000
150	103540	29.3	1000
150	103713	29.35	1000
150	103767	29.4	1000
150	103940	29.45	1000
150	103994	29.5	1000
150	104168	29.55	1000
150	104341	29.6	1000
150	104514	29.65	1000
150	104804	29.7	1000
150	104859	29.75	1000
150	105149	29.8	1000
150	105323	29.85	1000
150	105377	29.9	1000
150	105550	29.95	1000
150	105745	30	1000
150	105918	30.05	1000
150	105972	30.1	1000
150	106026	30.15	1000
150	106199	30.2	1000
150	106372	30.25	1000
150	106426	30.3	1000
150	106480	30.35	1000
150	106653	30.4	1000
150	106827	30.45	1000
150	107119	30.5	1000
150	107174	30.55	1000
150	107347	30.6	1000
150	107637	30.65	1000
150	107811	30.7	1000
150	107984	30.75	1000
150	108274	30.8	1000
150	108448	30.85	1000
150	108680	30.9	1000
150	108734	30.95	1000
150	108929	31	1000
150	108985	31.05	1000
150	109158	31.1	1000
150	109331	31.15	1000
150	109504	31.2	1000
150	109558	31.25	1000
150	109731	31.3	1000
150	109904	31.35	1000
150	110077	31.4	1000
150	110250	31.45	1000
150	110423	31.5	1000
150	110713	31.55	1000
150	110768	31.6	1000
150	110941	31.65	1000
150	110995	31.7	1000
150	111049	31.75	1000
150	111103	31.8	1000
150	111276	31.85	1000
150	111449	31.9	1000
150	111503	31.95	1000
150	111815	32	1000
150	111989	32.05	1000
150	112043	32.1	1000
150	112216	32.15	1000
150	112270	32.2	1000
150	112560	32.25	1000
150	112615	32.3	1000
150	112905	32.35	1000
150	113080	32.4	1000
150	113255	32.45	1000
150	113428	32.5	1000
150	113482	32.55	1000
150	113536	32.6	1000
150	113590	32.65	1000
150	113644	32.7	1000
150	113817	32.75	1000
150	114108	32.8	1000
150	114163	32.85	1000
150	114337	32.9	1000
150	114510	32.95	1000
150	114822	33	1000
150	114996	33.05	1000
150	115169	33.1	1000
150	115342	33.15	1000
150	115515	33.2	1000
150	115688	33.25	1000
150	115978	33.3	1000
150	116152	33.35	1000
150	116206	33.4	1000
150	116260	33.45	1000
150	116550	33.5	1000
150	116841	33.55	1000
150	116896	33.6	1000
150	116950	33.65	1000
150	117123	33.7	1000
150	117413	33.75	1000
150	117468	33.8	1000
150	117641	33.85	1000
150	117814	33.9	1000
150	117987	33.95	1000
150	118182	34	1000
150	118472	34.05	1000
150	118527	34.1	1000
150	118700	34.15	1000
150	118990	34.2	1000
150	119164	34.25	1000
150	119337	34.3	1000
150	119512	34.35	1000
150	119687	34.4	1000
150	119977	34.45	1000
150	120032	34.5	1000
150	120205	34.55	1000
150	120259	34.6	1000
150	120432	34.65	1000
150	120605	34.7	1000
150	120778	34.75	1000
150	120952	34.8	1000
150	121006	34.85	1000
150	121060	34.9	1000
150	121114	34.95	1000
150	121309	35	1000
150	121363	35.05	1000
150	121536	35.1	1000
150	121826	35.15	1000
150	122000	35.2	1000
150	122173	35.25	1000
150	122346	35.3	1000
150	122400	35.35	1000
150	122690	35.4	1000
150	122864	35.45	1000
150	123154	35.5	1000
150	123328	35.55	1000
150	123382	35.6	1000
150	123672	35.65	1000
150	123846	35.7	1000
150	124136	35.75	1000
150	124310	35.8	1000
150	124483	35.85	1000
150	124656	35.9	1000
150	124946	35.95	1000
150	125142	36	1000
150	125432	36.05	1000
150	125606	36.1	1000
150	125896	36.15	1000
150	125952	36.2	1000
150	126125	36.25	1000
150	126299	36.3	1000
150	126353	36.35	1000
150	126645	36.4	1000
150	126820	36.45	1000
150	126993	36.5	1000
150	127166	36.55	1000
150	127220	36.6	1000
150	127510	36.65	1000
150	127801	36.7	1000
150	128092	36.75	1000
150	128147	36.8	1000
150	128320	36.85	1000
150	128374	36.9	1000
150	128547	36.95	1000
150	128859	37	1000
150	129033	37.05	1000
150	129206	37.1	1000
150	129496	37.15	1000
150	129670	37.2	1000
150	129843	37.25	1000
150	130016	37.3	1000
150	130070	37.35	1000
150	130243	37.4	1000
150	130297	37.45	1000
150	130351	37.5	1000
150	130524	37.55	1000
150	130578	37.6	1000
150	130751	37.65	1000
150	130924	37.7	1000
150	131097	37.75	1000
150	131151	37.8	1000
150	131205	37.85	1000
150	131378	37.9	1000
150	131668	37.95	1000
150	131864	38	1000
150	132037	38.05	1000
150	132091	38.1	1000
150	132265	38.15	1000
150	132319	38.2	1000
150	132610	38.25	1000
150	132903	38.3	1000
150	133077	38.35	1000
150	133251	38.4	1000
150	133424	38.45	1000
150	133597	38.5	1000
150	133770	38.55	1000
150	133943	38.6	1000
150	134233	38.65	1000
150	134407	38.7	1000
150	134461	38.75	1000
150	134634	38.8	1000
150	134688	38.85	1000
150	134742	38.9	1000
150	134915	38.95	1000
150	135227	39	1000
150	135401	39.05	1000
150	135574	39.1	1000
150	135864	39.15	1000
150	136038	39.2	1000
150	136092	39.25	1000
150	136146	39.3	1000
150	136436	39.35	1000
150	136491	39.4	1000
150	136664	39.45	1000
150	136954	39.5	1000
150	137128	39.55	1000
150	137182	39.6	1000
150	137236	39.65	1000
150	137526	39.7	1000
150	137700	39.75	1000
150	137754	39.8	1000
150	137927	39.85	1000
150	138100	39.9	1000
150	138155	39.95	1000
150	138350	40	1000
150	138523	40.05	1000
150	138813	40.1	1000
150	138868	40.15	1000
150	139042	40.2	1000
150	139215	40.25	1000
150	139391	40.3	1000
150	139564	40.35	1000
150	139854	40.4	1000
150	139909	40.45	1000
150	140082	40.5	1000
150	140255	40.55	1000
150	140545	40.6	1000
150	140719	40.65	1000
150	141009	40.7	1000
150	141300	40.75	1000
150	141355	40.8	1000
150	141645	40.85	1000
150	141936	40.9	1000
150	142110	40.95	1000
150	142186	41	1000
150	142359	41.05	1000
150	142649	41.1	1000
150	142704	41.15	1000
150	142758	41.2	1000
150	142931	41.25	1000
150	142985	41.3	1000
150	143039	41.35	1000
150	143212	41.4	1000
150	143385	41.45	1000
150	143439	41.5	1000
150	143729	41.55	1000
150	143903	41.6	1000
150	144076	41.65	1000
150	144250	41.7	1000
150	144423	41.75	1000
150	144596	41.8	1000
150	144769	41.85	1000
150	144942	41.9	1000
150	144996	41.95	1000
150	145308	42	1000
150	145363	42.05	1000
150	145418	42.1	1000
150	145592	42.15	1000
150	145882	42.2	1000
150	146173	42.25	1000
150	146349	42.3	1000
150	146403	42.35	1000
150	146576	42.4	1000
150	146749	42.45	1000
150	146803	42.5	1000
150	146976	42.55	1000
150	147149	42.6	1000
150	147322	42.65	1000
150	147495	42.7	1000
150	147785	42.75	1000
150	147959	42.8	1000
150	148249	42.85	1000
150	148540	42.9	1000
150	148831	42.95	1000
150	149027	43	1000
150	149081	43.05	1000
150	149135	43.1	1000
150	149189	43.15	1000
150	149243	43.2	1000
150	149416	43.25	1000
150	149470	43.3	1000
150	149643	43.35	1000
150	149697	43.4	1000
150	149870	43.45	1000
150	150043	43.5	1000
150	150217	43.55	1000
150	150271	43.6	1000
150	150561	43.65	1000
150	150616	43.7	1000
150	150789	43.75	1000
150	150843	43.8	1000
150	151016	43.85	1000
150	151306	43.9	1000
150	151361	43.95	1000
150	151438	44	1000
150	151492	44.05	1000
150	151783	44.1	1000
150	151957	44.15	1000
150	152011	44.2	1000
150	152185	44.25	1000
150	152476	44.3	1000
150	152767	44.35	1000
150	153000	44.4	1000
150	153173	44.45	1000
150	153227	44.5	1000
150	153400	44.55	1000
150	153573	44.6	1000
150	153746	44.65	1000
150	153919	44.7	1000
150	153973	44.75	1000
150	154146	44.8	1000
150	154319	44.85	1000
150	154492	44.9	1000
150	154666	44.95	1000
150	154861	45	1000
150	155034	45.05	1000
150	155207	45.1	1000
150	155380	45.15	1000
150	155434	45.2	1000
150	155607	45.25	1000
150	155780	45.3	1000
150	155834	45.35	1000
150	156124	45.4	1000
150	156179	45.45	1000
150	156469	45.5	1000
150	156643	45.55	1000
150	156816	45.6	1000
150	156870	45.65	1000
150	157160	45.7	1000
150	157334	45.75	1000
150	157624	45.8	1000
150	157679	45.85	1000
150	157853	45.9	1000
150	158026	45.95	1000
150	158221	46	1000
150	158395	46.05	1000
150	158568	46.1	1000
150	158623	46.15	1000
150	158796	46.2	1000
150	158970	46.25	1000
150	159143	46.3	1000
150	159317	46.35	1000
150	159371	46.4	1000
150	159544	46.45	1000
150	159717	46.5	1000
150	159771	46.55	1000
150	159825	46.6	1000
150	159998	46.65	1000
150	160288	46.7	1000
150	160343	46.75	1000
150	160516	46.8	1000
150	160689	46.85	1000
150	160862	46.9	1000
150	161152	46.95	1000
150	161348	47	1000
150	161521	47.05	1000
150	161694	47.1	1000
150	161984	47.15	1000
150	162158	47.2	1000
150	162448	47.25	1000
150	162739	47.3	1000
150	163030	47.35	1000
150	163321	47.4	1000
150	163495	47.45	1000
150	163668	47.5	1000
150	163722	47.55	1000
150	163895	47.6	1000
150	164068	47.65	1000
150	164241	47.7	1000
150	164414	47.75	1000
150	164706	47.8	1000
150	164880	47.85	1000
150	165053	47.9	1000
150	165343	47.95	1000
150	165540	48	1000
150	165713	48.05	1000
150	165768	48.1	1000
150	166058	48.15	1000
150	166232	48.2	1000
150	166406	48.25	1000
150	166696	48.3	1000
150	166870	48.35	1000
150	166924	48.4	1000
150	167097	48.45	1000
150	167270	48.5	1000
150	167324	48.55	1000
150	167378	48.6	1000
150	167668	48.65	1000
150	167842	48.7	1000
150	167896	48.75	1000
150	168069	48.8	1000
150	168123	48.85	1000
150	168296	48.9	1000
150	168469	48.95	1000
150	168545	49	1000
150	168718	49.05	1000
150	169008	49.1	1000
150	169182	49.15	1000
150	169236	49.2	1000
150	169409	49.25	1000
150	169582	49.3	1000
150	169872	49.35	1000
150	170164	49.4	1000
150	170338	49.45	1000
150	170392	49.5	1000
150	170565	49.55	1000
150	170855	49.6	1000
150	170910	49.65	1000
150	170964	49.7	1000
150	171137	49.75	1000
150	171192	49.8	1000
150	171246	49.85	1000
150	171536	49.9	1000
150	171711	49.95	1000
150	171906	50	1000
150	172197	50.05	1000
150	172371	50.1	1000
150	172425	50.15	1000
150	172715	50.2	1000
150	172771	50.25	1000
150	173061	50.3	1000
150	173235	50.35	1000
150	173525	50.4	1000
150	173699	50.45	1000
150	173753	50.5	1000
150	173926	50.55	1000
150	174099	50.6	1000
150	174153	50.65	1000
150	174385	50.7	1000
150	174439	50.75	1000
150	174493	50.8	1000
150	174783	50.85	1000
150	174957	50.9	1000
150	175011	50.95	1000
150	175206	51	1000
150	175260	51.05	1000
150	175314	51.1	1000
150	175487	51.15	1000
150	175660	51.2	1000
150	175833	51.25	1000
150	175887	51.3	1000
150	175941	51.35	1000
150	176115	51.4	1000
150	176288	51.45	1000
150	176461	51.5	1000
150	176515	51.55	1000
150	176570	51.6	1000
150	176860	51.65	1000
150	177151	51.7	1000
150	177206	51.75	1000
150	177496	51.8	1000
150	177551	51.85	1000
150	177725	51.9	1000
150	177898	51.95	1000
150	178210	52	1000
150	178385	52.05	1000
150	178558	52.1	1000
150	178731	52.15	1000
150	179022	52.2	1000
150	179196	52.25	1000
150	179369	52.3	1000
150	179542	52.35	1000
150	179715	52.4	1000
150	179769	52.45	1000
150	179942	52.5	1000
150	180115	52.55	1000
150	180288	52.6	1000
150	180461	52.65	1000
150	180751	52.7	1000
150	180925	52.75	1000
150	180979	52.8	1000
150	181271	52.85	1000
150	181445	52.9	1000
150	181735	52.95	1000
150	181931	53	1000
150	181985	53.05	1000
150	182158	53.1	1000
150	182331	53.15	1000
150	182504	53.2	1000
150	182677	53.25	1000
150	182850	53.3	1000
150	182904	53.35	1000
150	183077	53.4	1000
150	183250	53.45	1000
150	183423	53.5	1000
150	183596	53.55	1000
150	183769	53.6	1000
150	183823	53.65	1000
150	183996	53.7	1000
150	184050	53.75	1000
150	184223	53.8	1000
150	184397	53.85	1000
150	184570	53.9	1000
150	184743	53.95	1000
150	184938	54	1000
150	185112	54.05	1000
150	185166	54.1	1000
150	185339	54.15	1000
150	185513	54.2	1000
150	185803	54.25	1000
150	185977	54.3	1000
150	186031	54.35	1000
150	186321	54.4	1000
150	186495	54.45	1000
150	186668	54.5	1000
150	186841	54.55	1000
150	187014	54.6	1000
150	187187	54.65	1000
150	187361	54.7	1000
150	187534	54.75	1000
150	187824	54.8	1000
150	187999	54.85	1000
150	188172	54.9	1000
150	188226	54.95	1000
150	188302	55	1000
150	188356	55.05	1000
150	188410	55.1	1000
150	188464	55.15	1000
150	188637	55.2	1000
150	188691	55.25	1000
150	188864	55.3	1000
150	189154	55.35	1000
150	189328	55.4	1000
150	189382	55.45	1000
150	189436	55.5	1000
150	189609	55.55	1000
150	189663	55.6	1000
150	189836	55.65	1000
150	190009	55.7	1000
150	190182	55.75	1000
150	190356	55.8	1000
150	190646	55.85	1000
150	190820	55.9	1000
150	191110	55.95	1000
150	191424	56	1000
150	191715	56.05	1000
150	191889	56.1	1000
150	191944	56.15	1000
150	192117	56.2	1000
150	192171	56.25	1000
150	192344	56.3	1000
150	192517	56.35	1000
150	192572	56.4	1000
150	192745	56.45	1000
150	192918	56.5	1000
150	192972	56.55	1000
150	193145	56.6	1000
150	193199	56.65	1000
150	193372	56.7	1000
150	193426	56.75	1000
150	193481	56.8	1000
150	193654	56.85	1000
150	193827	56.9	1000
150	194000	56.95	1000
150	194195	57	1000
150	194485	57.05	1000
150	194540	57.1	1000
150	194594	57.15	1000
150	194767	57.2	1000
150	194821	57.25	1000
150	194875	57.3	1000
150	194929	57.35	1000
150	195219	57.4	1000
150	195393	57.45	1000
150	195566	57.5	1000
150	195739	57.55	1000
150	195912	57.6	1000
150	195966	57.65	1000
150	196139	57.7	1000
150	196313	57.75	1000
150	196486	57.8	1000
150	196659	57.85	1000
150	196713	57.9	1000
150	196886	57.95	1000
150	197199	58	1000
150	197375	58.05	1000
150	197549	58.1	1000
150	197603	58.15	1000
150	197776	58.2	1000
150	197830	58.25	1000
150	198003	58.3	1000
150	198057	58.35	1000
150	198347	58.4	1000
150	198521	58.45	1000
150	198575	58.5	1000
150	198629	58.55	1000
150	198802	58.6	1000
150	199092	58.65	1000
150	199147	58.7	1000
150	199320	58.75	1000
150	199493	58.8	1000
150	199666	58.85	1000
150	199839	58.9	1000
150	199893	58.95	1000
150	200088	59	1000
150	200142	59.05	1000
150	200432	59.1	1000
150	200606	59.15	1000
150	200896	59.2	1000
150	201187	59.25	1000
150	201478	59.3	1000
150	201652	59.35	1000
150	201825	59.4	1000
150	201998	59.45	1000
150	202171	59.5	1000
150	202344	59.55	1000
150	202517	59.6	1000
150	202690	59.65	1000
150	202745	59.7	1000
150	202918	59.75	1000
150	203091	59.8	1000
150	203264	59.85	1000
150	203554	59.9	1000
150	203728	59.95	1000
150	203926	60	1000
153	74	0.05	1008
153	428	0.1	1008
153	431	0.15	1008
153	434	0.2	1008
153	437	0.25	1008
153	440	0.3	1008
153	443	0.35	1008
153	1842	0.4	1008
153	1845	0.45	1008
153	1848	0.5	1008
153	1851	0.55	1008
153	1854	0.6	1008
153	1857	0.65	1008
153	1860	0.7	1008
153	1863	0.75	1008
153	1866	0.8	1008
153	1870	0.85	1008
153	3825	0.9	1008
153	4325	0.95	1008
153	4701	1	1008
153	5103	1.05	1008
153	5350	1.1	1008
153	5404	1.15	1008
153	5577	1.2	1008
153	5750	1.25	1008
153	5923	1.3	1008
153	6096	1.35	1008
153	6269	1.4	1008
153	6559	1.45	1008
153	6850	1.5	1008
153	6905	1.55	1008
153	7078	1.6	1008
153	7251	1.65	1008
153	7424	1.7	1008
153	7714	1.75	1008
153	7769	1.8	1008
153	8059	1.85	1008
153	8350	1.9	1008
153	8524	1.95	1008
153	8719	2	1008
153	8892	2.05	1008
153	9182	2.1	1008
153	9356	2.15	1008
153	9410	2.2	1008
153	9583	2.25	1008
153	9756	2.3	1008
153	9929	2.35	1008
153	10249	2.4	1008
153	10304	2.45	1008
153	10358	2.5	1008
153	10648	2.55	1008
153	10939	2.6	1008
153	11113	2.65	1008
153	11403	2.7	1008
153	11694	2.75	1008
153	11868	2.8	1008
153	12158	2.85	1008
153	12470	2.9	1008
153	12760	2.95	1008
153	12956	3	1008
153	13129	3.05	1008
153	13419	3.1	1008
153	13593	3.15	1008
153	13766	3.2	1008
153	13820	3.25	1008
153	13993	3.3	1008
153	14166	3.35	1008
153	14456	3.4	1008
153	14747	3.45	1008
153	14921	3.5	1008
153	15094	3.55	1008
153	15267	3.6	1008
153	15440	3.65	1008
153	15730	3.7	1008
153	15785	3.75	1008
153	15958	3.8	1008
153	16131	3.85	1008
153	16185	3.9	1008
153	16239	3.95	1008
153	16434	4	1008
153	16607	4.05	1008
153	16780	4.1	1008
153	17070	4.15	1008
153	17361	4.2	1008
153	17535	4.25	1008
153	17825	4.3	1008
153	17880	4.35	1008
153	18053	4.4	1008
153	18107	4.45	1008
153	18397	4.5	1008
153	18688	4.55	1008
153	18979	4.6	1008
153	19270	4.65	1008
153	19325	4.7	1008
153	19498	4.75	1008
153	19788	4.8	1008
153	20083	4.85	1008
153	20375	4.9	1008
153	20549	4.95	1008
153	20625	5	1008
153	20679	5.05	1008
153	20733	5.1	1008
153	20906	5.15	1008
153	21079	5.2	1008
153	21369	5.25	1008
153	21543	5.3	1008
153	21833	5.35	1008
153	22007	5.4	1008
153	22061	5.45	1008
153	22234	5.5	1008
153	22288	5.55	1008
153	22461	5.6	1008
153	22751	5.65	1008
153	23042	5.7	1008
153	23216	5.75	1008
153	23389	5.8	1008
153	23679	5.85	1008
153	23853	5.9	1008
153	24026	5.95	1008
153	24221	6	1008
153	24511	6.05	1008
153	24567	6.1	1008
153	24622	6.15	1008
153	24912	6.2	1008
153	24972	6.25	1008
153	25152	6.3	1008
153	25206	6.35	1008
153	25382	6.4	1008
153	25436	6.45	1008
153	25490	6.5	1008
153	25663	6.55	1008
153	25836	6.6	1008
153	26009	6.65	1008
153	26182	6.7	1008
153	26355	6.75	1008
153	26530	6.8	1008
153	26586	6.85	1008
153	26760	6.9	1008
153	26933	6.95	1008
153	27128	7	1008
153	27418	7.05	1008
153	27592	7.1	1008
153	27765	7.15	1008
153	27819	7.2	1008
153	27992	7.25	1008
153	28165	7.3	1008
153	28219	7.35	1008
153	28273	7.4	1008
153	28563	7.45	1008
153	28737	7.5	1008
153	28910	7.55	1008
153	29200	7.6	1008
153	29255	7.65	1008
153	29309	7.7	1008
153	29482	7.75	1008
153	29655	7.8	1008
153	29709	7.85	1008
153	29882	7.9	1008
153	30114	7.95	1008
153	30309	8	1008
153	30482	8.05	1008
153	30655	8.1	1008
153	30945	8.15	1008
153	31121	8.2	1008
153	31294	8.25	1008
153	31467	8.3	1008
153	31640	8.35	1008
153	31813	8.4	1008
153	31986	8.45	1008
153	32276	8.5	1008
153	32331	8.55	1008
153	32385	8.6	1008
153	32558	8.65	1008
153	32731	8.7	1008
153	33022	8.75	1008
153	33079	8.8	1008
153	33252	8.85	1008
153	33425	8.9	1008
153	33598	8.95	1008
153	33910	9	1008
153	34201	9.05	1008
153	34375	9.1	1008
153	34665	9.15	1008
153	34839	9.2	1008
153	35129	9.25	1008
153	35420	9.3	1008
153	35475	9.35	1008
153	35529	9.4	1008
153	35702	9.45	1008
153	35992	9.5	1008
153	36166	9.55	1008
153	36220	9.6	1008
153	36393	9.65	1008
153	36566	9.7	1008
153	36739	9.75	1008
153	37029	9.8	1008
153	37203	9.85	1008
153	37257	9.9	1008
153	37430	9.95	1008
153	37742	10	1008
153	38033	10.05	1008
153	38207	10.1	1008
153	38499	10.15	1008
153	38673	10.2	1008
153	38846	10.25	1008
153	38900	10.3	1008
153	39073	10.35	1008
153	39246	10.4	1008
153	39419	10.45	1008
153	39592	10.5	1008
153	39765	10.55	1008
153	39819	10.6	1008
153	39992	10.65	1008
153	40047	10.7	1008
153	40103	10.75	1008
153	40276	10.8	1008
153	40449	10.85	1008
153	40503	10.9	1008
153	40793	10.95	1008
153	40989	11	1008
153	41279	11.05	1008
153	41334	11.1	1008
153	41624	11.15	1008
153	41915	11.2	1008
153	42206	11.25	1008
153	42380	11.3	1008
153	42553	11.35	1008
153	42726	11.4	1008
153	42899	11.45	1008
153	43189	11.5	1008
153	43363	11.55	1008
153	43417	11.6	1008
153	43590	11.65	1008
153	43763	11.7	1008
153	43936	11.75	1008
153	44109	11.8	1008
153	44282	11.85	1008
153	44455	11.9	1008
153	44628	11.95	1008
153	44704	12	1008
153	44996	12.05	1008
153	45170	12.1	1008
153	45343	12.15	1008
153	45516	12.2	1008
153	45689	12.25	1008
153	45979	12.3	1008
153	46153	12.35	1008
153	46356	12.4	1008
153	46410	12.45	1008
153	46700	12.5	1008
153	46874	12.55	1008
153	46928	12.6	1008
153	46983	12.65	1008
153	47037	12.7	1008
153	47210	12.75	1008
153	47383	12.8	1008
153	47556	12.85	1008
153	47983	12.9	1008
153	48157	12.95	1008
153	48352	13	1008
153	48525	13.05	1008
153	48698	13.1	1008
153	48988	13.15	1008
153	49279	13.2	1008
153	49570	13.25	1008
153	49861	13.3	1008
153	50152	13.35	1008
153	50207	13.4	1008
153	50497	13.45	1008
153	50552	13.5	1008
153	50725	13.55	1008
153	50779	13.6	1008
153	51069	13.65	1008
153	51243	13.7	1008
153	51416	13.75	1008
153	51589	13.8	1008
153	51762	13.85	1008
153	51816	13.9	1008
153	51989	13.95	1008
153	52184	14	1008
153	52238	14.05	1008
153	52528	14.1	1008
153	52702	14.15	1008
153	52992	14.2	1008
153	53166	14.25	1008
153	53339	14.3	1008
153	53512	14.35	1008
153	53566	14.4	1008
153	53739	14.45	1008
153	53795	14.5	1008
153	53849	14.55	1008
153	53903	14.6	1008
153	54193	14.65	1008
153	54484	14.7	1008
153	54539	14.75	1008
153	54712	14.8	1008
153	54887	14.85	1008
153	54942	14.9	1008
153	54996	14.95	1008
153	55308	15	1008
153	55363	15.05	1008
153	55653	15.1	1008
153	55708	15.15	1008
153	55762	15.2	1008
153	55935	15.25	1008
153	56108	15.3	1008
153	56398	15.35	1008
153	56572	15.4	1008
153	56626	15.45	1008
153	56680	15.5	1008
153	56734	15.55	1008
153	56907	15.6	1008
153	57080	15.65	1008
153	57253	15.7	1008
153	57426	15.75	1008
153	57599	15.8	1008
153	57889	15.85	1008
153	58063	15.9	1008
153	58117	15.95	1008
153	58312	16	1008
153	58366	16.05	1008
153	58540	16.1	1008
153	58714	16.15	1008
153	59006	16.2	1008
153	59185	16.25	1008
153	59365	16.3	1008
153	59419	16.35	1008
153	59476	16.4	1008
153	59649	16.45	1008
153	59822	16.5	1008
153	59876	16.55	1008
153	60049	16.6	1008
153	60103	16.65	1008
153	60157	16.7	1008
153	60330	16.75	1008
153	60505	16.8	1008
153	60796	16.85	1008
153	60970	16.9	1008
153	61143	16.95	1008
153	61219	17	1008
153	61509	17.05	1008
153	61800	17.1	1008
153	61974	17.15	1008
153	62264	17.2	1008
153	62438	17.25	1008
153	62611	17.3	1008
153	62665	17.35	1008
153	62838	17.4	1008
153	63011	17.45	1008
153	63184	17.5	1008
153	63474	17.55	1008
153	63648	17.6	1008
153	63702	17.65	1008
153	63756	17.7	1008
153	63929	17.75	1008
153	64219	17.8	1008
153	64395	17.85	1008
153	64568	17.9	1008
153	64741	17.95	1008
153	65053	18	1008
153	65344	18.05	1008
153	65518	18.1	1008
153	65691	18.15	1008
153	65864	18.2	1008
153	66154	18.25	1008
153	66328	18.3	1008
153	66618	18.35	1008
153	66792	18.4	1008
153	67082	18.45	1008
153	67137	18.5	1008
153	67427	18.55	1008
153	67482	18.6	1008
153	67655	18.65	1008
153	67828	18.7	1008
153	68002	18.75	1008
153	68293	18.8	1008
153	68349	18.85	1008
153	68522	18.9	1008
153	68576	18.95	1008
153	68771	19	1008
153	68944	19.05	1008
153	69117	19.1	1008
153	69290	19.15	1008
153	69463	19.2	1008
153	69517	19.25	1008
153	69690	19.3	1008
153	69980	19.35	1008
153	70035	19.4	1008
153	70208	19.45	1008
153	70498	19.5	1008
153	70789	19.55	1008
153	70963	19.6	1008
153	71136	19.65	1008
153	71426	19.7	1008
153	71717	19.75	1008
153	71893	19.8	1008
153	72066	19.85	1008
153	72239	19.9	1008
153	72529	19.95	1008
153	72606	20	1008
153	72896	20.05	1008
153	73187	20.1	1008
153	73361	20.15	1008
153	73534	20.2	1008
153	73707	20.25	1008
153	73880	20.3	1008
153	74053	20.35	1008
153	74343	20.4	1008
153	74517	20.45	1008
153	74690	20.5	1008
153	74863	20.55	1008
153	75153	20.6	1008
153	75327	20.65	1008
153	75501	20.7	1008
153	75675	20.75	1008
153	75966	20.8	1008
153	76140	20.85	1008
153	76194	20.9	1008
153	76367	20.95	1008
153	76562	21	1008
153	76735	21.05	1008
153	77025	21.1	1008
153	77080	21.15	1008
153	77134	21.2	1008
153	77188	21.25	1008
153	77361	21.3	1008
153	77534	21.35	1008
153	77588	21.4	1008
153	77761	21.45	1008
153	77815	21.5	1008
153	77869	21.55	1008
153	78042	21.6	1008
153	78096	21.65	1008
153	78386	21.7	1008
153	78679	21.75	1008
153	78734	21.8	1008
153	78907	21.85	1008
153	79197	21.9	1008
153	79371	21.95	1008
153	79566	22	1008
153	79620	22.05	1008
153	79793	22.1	1008
153	80083	22.15	1008
153	80374	22.2	1008
153	80548	22.25	1008
153	80602	22.3	1008
153	80892	22.35	1008
153	80947	22.4	1008
153	81237	22.45	1008
153	81411	22.5	1008
153	81701	22.55	1008
153	81756	22.6	1008
153	82047	22.65	1008
153	82102	22.7	1008
153	82277	22.75	1008
153	82331	22.8	1008
153	82504	22.85	1008
153	82558	22.9	1008
153	82848	22.95	1008
153	83044	23	1008
153	83217	23.05	1008
153	83390	23.1	1008
153	83563	23.15	1008
153	83617	23.2	1008
153	83790	23.25	1008
153	83963	23.3	1008
153	84253	23.35	1008
153	84544	23.4	1008
153	84718	23.45	1008
153	84772	23.5	1008
153	84945	23.55	1008
153	84999	23.6	1008
153	85053	23.65	1008
153	85343	23.7	1008
153	85400	23.75	1008
153	85690	23.8	1008
153	85864	23.85	1008
153	86037	23.9	1008
153	86327	23.95	1008
153	86404	24	1008
153	86458	24.05	1008
153	86631	24.1	1008
153	86804	24.15	1008
153	86977	24.2	1008
153	87150	24.25	1008
153	87440	24.3	1008
153	87731	24.35	1008
153	87905	24.4	1008
153	87959	24.45	1008
153	88132	24.5	1008
153	88305	24.55	1008
153	88479	24.6	1008
153	88654	24.65	1008
153	88827	24.7	1008
153	89000	24.75	1008
153	89173	24.8	1008
153	89227	24.85	1008
153	89281	24.9	1008
153	89335	24.95	1008
153	89530	25	1008
153	89820	25.05	1008
153	90111	25.1	1008
153	90285	25.15	1008
153	90575	25.2	1008
153	90630	25.25	1008
153	90803	25.3	1008
153	90976	25.35	1008
153	91149	25.4	1008
153	91322	25.45	1008
153	91376	25.5	1008
153	91430	25.55	1008
153	91603	25.6	1008
153	91776	25.65	1008
153	92068	25.7	1008
153	92123	25.75	1008
153	92296	25.8	1008
153	92469	25.85	1008
153	92642	25.9	1008
153	92815	25.95	1008
153	93127	26	1008
153	93301	26.05	1008
153	93591	26.1	1008
153	93765	26.15	1008
153	93938	26.2	1008
153	94111	26.25	1008
153	94284	26.3	1008
153	94338	26.35	1008
153	94392	26.4	1008
153	94682	26.45	1008
153	94856	26.5	1008
153	95030	26.55	1008
153	95205	26.6	1008
153	95259	26.65	1008
153	95313	26.7	1008
153	95367	26.75	1008
153	95540	26.8	1008
153	95713	26.85	1008
153	95767	26.9	1008
153	95940	26.95	1008
153	96135	27	1008
153	96308	27.05	1008
153	96598	27.1	1008
153	96772	27.15	1008
153	96827	27.2	1008
153	97117	27.25	1008
153	97291	27.3	1008
153	97464	27.35	1008
153	97754	27.4	1008
153	97809	27.45	1008
153	97982	27.5	1008
153	98272	27.55	1008
153	98446	27.6	1008
153	98619	27.65	1008
153	98674	27.7	1008
153	98728	27.75	1008
153	98782	27.8	1008
153	98955	27.85	1008
153	99009	27.9	1008
153	99063	27.95	1008
153	99375	28	1008
153	99549	28.05	1008
153	99722	28.1	1008
153	99895	28.15	1008
153	100068	28.2	1008
153	100241	28.25	1008
153	100295	28.3	1008
153	100349	28.35	1008
153	100403	28.4	1008
153	100576	28.45	1008
153	100750	28.5	1008
153	100925	28.55	1008
153	101098	28.6	1008
153	101271	28.65	1008
153	101444	28.7	1008
153	101498	28.75	1008
153	101671	28.8	1008
153	101844	28.85	1008
153	102017	28.9	1008
153	102307	28.95	1008
153	102384	29	1008
153	102674	29.05	1008
153	102849	29.1	1008
153	103022	29.15	1008
153	103195	29.2	1008
153	103368	29.25	1008
153	103541	29.3	1008
153	103714	29.35	1008
153	103768	29.4	1008
153	103941	29.45	1008
153	103995	29.5	1008
153	104169	29.55	1008
153	104342	29.6	1008
153	104515	29.65	1008
153	104805	29.7	1008
153	104860	29.75	1008
153	105150	29.8	1008
153	105324	29.85	1008
153	105378	29.9	1008
153	105551	29.95	1008
153	105746	30	1008
153	105919	30.05	1008
153	105973	30.1	1008
153	106027	30.15	1008
153	106200	30.2	1008
153	106373	30.25	1008
153	106427	30.3	1008
153	106481	30.35	1008
153	106654	30.4	1008
153	106828	30.45	1008
153	107120	30.5	1008
153	107175	30.55	1008
153	107348	30.6	1008
153	107638	30.65	1008
153	107812	30.7	1008
153	107985	30.75	1008
153	108275	30.8	1008
153	108449	30.85	1008
153	108681	30.9	1008
153	108735	30.95	1008
153	108930	31	1008
153	108986	31.05	1008
153	109159	31.1	1008
153	109332	31.15	1008
153	109505	31.2	1008
153	109559	31.25	1008
153	109732	31.3	1008
153	109905	31.35	1008
153	110078	31.4	1008
153	110251	31.45	1008
153	110424	31.5	1008
153	110714	31.55	1008
153	110769	31.6	1008
153	110942	31.65	1008
153	110996	31.7	1008
153	111050	31.75	1008
153	111104	31.8	1008
153	111277	31.85	1008
153	111450	31.9	1008
153	111504	31.95	1008
153	111816	32	1008
153	111990	32.05	1008
153	112044	32.1	1008
153	112217	32.15	1008
153	112271	32.2	1008
153	112561	32.25	1008
153	112616	32.3	1008
153	112906	32.35	1008
153	113081	32.4	1008
153	113256	32.45	1008
153	113429	32.5	1008
153	113483	32.55	1008
153	113537	32.6	1008
153	113591	32.65	1008
153	113645	32.7	1008
153	113818	32.75	1008
153	114109	32.8	1008
153	114164	32.85	1008
153	114338	32.9	1008
153	114511	32.95	1008
153	114823	33	1008
153	114997	33.05	1008
153	115170	33.1	1008
153	115343	33.15	1008
153	115516	33.2	1008
153	115689	33.25	1008
153	115979	33.3	1008
153	116153	33.35	1008
153	116207	33.4	1008
153	116261	33.45	1008
153	116551	33.5	1008
153	116842	33.55	1008
153	116897	33.6	1008
153	116951	33.65	1008
153	117124	33.7	1008
153	117414	33.75	1008
153	117469	33.8	1008
153	117642	33.85	1008
153	117815	33.9	1008
153	117988	33.95	1008
153	118183	34	1008
153	118473	34.05	1008
153	118528	34.1	1008
153	118701	34.15	1008
153	118991	34.2	1008
153	119165	34.25	1008
153	119338	34.3	1008
153	119513	34.35	1008
153	119688	34.4	1008
153	119978	34.45	1008
153	120033	34.5	1008
153	120206	34.55	1008
153	120260	34.6	1008
153	120433	34.65	1008
153	120606	34.7	1008
153	120779	34.75	1008
153	120953	34.8	1008
153	121007	34.85	1008
153	121061	34.9	1008
153	121115	34.95	1008
153	121310	35	1008
153	121364	35.05	1008
153	121537	35.1	1008
153	121827	35.15	1008
153	122001	35.2	1008
153	122174	35.25	1008
153	122347	35.3	1008
153	122401	35.35	1008
153	122691	35.4	1008
153	122865	35.45	1008
153	123155	35.5	1008
153	123329	35.55	1008
153	123383	35.6	1008
153	123673	35.65	1008
153	123847	35.7	1008
153	124137	35.75	1008
153	124311	35.8	1008
153	124484	35.85	1008
153	124657	35.9	1008
153	124947	35.95	1008
153	125143	36	1008
153	125433	36.05	1008
153	125607	36.1	1008
153	125897	36.15	1008
153	125953	36.2	1008
153	126126	36.25	1008
153	126300	36.3	1008
153	126354	36.35	1008
153	126646	36.4	1008
153	126821	36.45	1008
153	126994	36.5	1008
153	127167	36.55	1008
153	127221	36.6	1008
153	127511	36.65	1008
153	127802	36.7	1008
153	128093	36.75	1008
153	128148	36.8	1008
153	128321	36.85	1008
153	128375	36.9	1008
153	128548	36.95	1008
153	128860	37	1008
153	129034	37.05	1008
153	129207	37.1	1008
153	129497	37.15	1008
153	129671	37.2	1008
153	129844	37.25	1008
153	130017	37.3	1008
153	130071	37.35	1008
153	130244	37.4	1008
153	130298	37.45	1008
153	130352	37.5	1008
153	130525	37.55	1008
153	130579	37.6	1008
153	130752	37.65	1008
153	130925	37.7	1008
153	131098	37.75	1008
153	131152	37.8	1008
153	131206	37.85	1008
153	131379	37.9	1008
153	131669	37.95	1008
153	131865	38	1008
153	132038	38.05	1008
153	132092	38.1	1008
153	132266	38.15	1008
153	132320	38.2	1008
153	132611	38.25	1008
153	132904	38.3	1008
153	133078	38.35	1008
153	133252	38.4	1008
153	133425	38.45	1008
153	133598	38.5	1008
153	133771	38.55	1008
153	133944	38.6	1008
153	134234	38.65	1008
153	134408	38.7	1008
153	134462	38.75	1008
153	134635	38.8	1008
153	134689	38.85	1008
153	134743	38.9	1008
153	134916	38.95	1008
153	135228	39	1008
153	135402	39.05	1008
153	135575	39.1	1008
153	135865	39.15	1008
153	136039	39.2	1008
153	136093	39.25	1008
153	136147	39.3	1008
153	136437	39.35	1008
153	136492	39.4	1008
153	136665	39.45	1008
153	136955	39.5	1008
153	137129	39.55	1008
153	137183	39.6	1008
153	137237	39.65	1008
153	137527	39.7	1008
153	137701	39.75	1008
153	137755	39.8	1008
153	137928	39.85	1008
153	138101	39.9	1008
153	138156	39.95	1008
153	138351	40	1008
153	138524	40.05	1008
153	138814	40.1	1008
153	138869	40.15	1008
153	139043	40.2	1008
153	139216	40.25	1008
153	139392	40.3	1008
153	139565	40.35	1008
153	139855	40.4	1008
153	139910	40.45	1008
153	140083	40.5	1008
153	140256	40.55	1008
153	140546	40.6	1008
153	140720	40.65	1008
153	141010	40.7	1008
153	141301	40.75	1008
153	141356	40.8	1008
153	141646	40.85	1008
153	141937	40.9	1008
153	142111	40.95	1008
153	142187	41	1008
153	142360	41.05	1008
153	142650	41.1	1008
153	142705	41.15	1008
153	142759	41.2	1008
153	142932	41.25	1008
153	142986	41.3	1008
153	143040	41.35	1008
153	143213	41.4	1008
153	143386	41.45	1008
153	143440	41.5	1008
153	143730	41.55	1008
153	143904	41.6	1008
153	144077	41.65	1008
153	144251	41.7	1008
153	144424	41.75	1008
153	144597	41.8	1008
153	144770	41.85	1008
153	144943	41.9	1008
153	144997	41.95	1008
153	145309	42	1008
153	145364	42.05	1008
153	145419	42.1	1008
153	145593	42.15	1008
153	145883	42.2	1008
153	146174	42.25	1008
153	146350	42.3	1008
153	146404	42.35	1008
153	146577	42.4	1008
153	146750	42.45	1008
153	146804	42.5	1008
153	146977	42.55	1008
153	147150	42.6	1008
153	147323	42.65	1008
153	147496	42.7	1008
153	147786	42.75	1008
153	147960	42.8	1008
153	148250	42.85	1008
153	148541	42.9	1008
153	148832	42.95	1008
153	149028	43	1008
153	149082	43.05	1008
153	149136	43.1	1008
153	149190	43.15	1008
153	149244	43.2	1008
153	149417	43.25	1008
153	149471	43.3	1008
153	149644	43.35	1008
153	149698	43.4	1008
153	149871	43.45	1008
153	150044	43.5	1008
153	150218	43.55	1008
153	150272	43.6	1008
153	150562	43.65	1008
153	150617	43.7	1008
153	150790	43.75	1008
153	150844	43.8	1008
153	151017	43.85	1008
153	151307	43.9	1008
153	151362	43.95	1008
153	151439	44	1008
153	151493	44.05	1008
153	151784	44.1	1008
153	151958	44.15	1008
153	152012	44.2	1008
153	152186	44.25	1008
153	152477	44.3	1008
153	152768	44.35	1008
153	153001	44.4	1008
153	153174	44.45	1008
153	153228	44.5	1008
153	153401	44.55	1008
153	153574	44.6	1008
153	153747	44.65	1008
153	153920	44.7	1008
153	153974	44.75	1008
153	154147	44.8	1008
153	154320	44.85	1008
153	154493	44.9	1008
153	154667	44.95	1008
153	154862	45	1008
153	155035	45.05	1008
153	155208	45.1	1008
153	155381	45.15	1008
153	155435	45.2	1008
153	155608	45.25	1008
153	155781	45.3	1008
153	155835	45.35	1008
153	156125	45.4	1008
153	156180	45.45	1008
153	156470	45.5	1008
153	156644	45.55	1008
153	156817	45.6	1008
153	156871	45.65	1008
153	157161	45.7	1008
153	157335	45.75	1008
153	157625	45.8	1008
153	157680	45.85	1008
153	157854	45.9	1008
153	158027	45.95	1008
153	158222	46	1008
153	158396	46.05	1008
153	158569	46.1	1008
153	158624	46.15	1008
153	158797	46.2	1008
153	158971	46.25	1008
153	159144	46.3	1008
153	159318	46.35	1008
153	159372	46.4	1008
153	159545	46.45	1008
153	159718	46.5	1008
153	159772	46.55	1008
153	159826	46.6	1008
153	159999	46.65	1008
153	160289	46.7	1008
153	160344	46.75	1008
153	160517	46.8	1008
153	160690	46.85	1008
153	160863	46.9	1008
153	161153	46.95	1008
153	161349	47	1008
153	161522	47.05	1008
153	161695	47.1	1008
153	161985	47.15	1008
153	162159	47.2	1008
153	162449	47.25	1008
153	162740	47.3	1008
153	163031	47.35	1008
153	163322	47.4	1008
153	163496	47.45	1008
153	163669	47.5	1008
153	163723	47.55	1008
153	163896	47.6	1008
153	164069	47.65	1008
153	164242	47.7	1008
153	164415	47.75	1008
153	164707	47.8	1008
153	164881	47.85	1008
153	165054	47.9	1008
153	165344	47.95	1008
153	165541	48	1008
153	165714	48.05	1008
153	165769	48.1	1008
153	166059	48.15	1008
153	166233	48.2	1008
153	166407	48.25	1008
153	166697	48.3	1008
153	166871	48.35	1008
153	166925	48.4	1008
153	167098	48.45	1008
153	167271	48.5	1008
153	167325	48.55	1008
153	167379	48.6	1008
153	167669	48.65	1008
153	167843	48.7	1008
153	167897	48.75	1008
153	168070	48.8	1008
153	168124	48.85	1008
153	168297	48.9	1008
153	168470	48.95	1008
153	168546	49	1008
153	168719	49.05	1008
153	169009	49.1	1008
153	169183	49.15	1008
153	169237	49.2	1008
153	169410	49.25	1008
153	169583	49.3	1008
153	169873	49.35	1008
153	170165	49.4	1008
153	170339	49.45	1008
153	170393	49.5	1008
153	170566	49.55	1008
153	170856	49.6	1008
153	170911	49.65	1008
153	170965	49.7	1008
153	171138	49.75	1008
153	171193	49.8	1008
153	171247	49.85	1008
153	171537	49.9	1008
153	171712	49.95	1008
153	171907	50	1008
153	172198	50.05	1008
153	172372	50.1	1008
153	172426	50.15	1008
153	172716	50.2	1008
153	172772	50.25	1008
153	173062	50.3	1008
153	173236	50.35	1008
153	173526	50.4	1008
153	173700	50.45	1008
153	173754	50.5	1008
153	173927	50.55	1008
153	174100	50.6	1008
153	174154	50.65	1008
153	174386	50.7	1008
153	174440	50.75	1008
153	174494	50.8	1008
153	174784	50.85	1008
153	174958	50.9	1008
153	175012	50.95	1008
153	175207	51	1008
153	175261	51.05	1008
153	175315	51.1	1008
153	175488	51.15	1008
153	175661	51.2	1008
153	175834	51.25	1008
153	175888	51.3	1008
153	175942	51.35	1008
153	176116	51.4	1008
153	176289	51.45	1008
153	176462	51.5	1008
153	176516	51.55	1008
153	176571	51.6	1008
153	176861	51.65	1008
153	177152	51.7	1008
153	177207	51.75	1008
153	177497	51.8	1008
153	177552	51.85	1008
153	177726	51.9	1008
153	177899	51.95	1008
153	178211	52	1008
153	178386	52.05	1008
153	178559	52.1	1008
153	178732	52.15	1008
153	179023	52.2	1008
153	179197	52.25	1008
153	179370	52.3	1008
153	179543	52.35	1008
153	179716	52.4	1008
153	179770	52.45	1008
153	179943	52.5	1008
153	180116	52.55	1008
153	180289	52.6	1008
153	180462	52.65	1008
153	180752	52.7	1008
153	180926	52.75	1008
153	180980	52.8	1008
153	181272	52.85	1008
153	181446	52.9	1008
153	181736	52.95	1008
153	181932	53	1008
153	181986	53.05	1008
153	182159	53.1	1008
153	182332	53.15	1008
153	182505	53.2	1008
153	182678	53.25	1008
153	182851	53.3	1008
153	182905	53.35	1008
153	183078	53.4	1008
153	183251	53.45	1008
153	183424	53.5	1008
153	183597	53.55	1008
153	183770	53.6	1008
153	183824	53.65	1008
153	183997	53.7	1008
153	184051	53.75	1008
153	184224	53.8	1008
153	184398	53.85	1008
153	184571	53.9	1008
153	184744	53.95	1008
153	184939	54	1008
153	185113	54.05	1008
153	185167	54.1	1008
153	185340	54.15	1008
153	185514	54.2	1008
153	185804	54.25	1008
153	185978	54.3	1008
153	186032	54.35	1008
153	186322	54.4	1008
153	186496	54.45	1008
153	186669	54.5	1008
153	186842	54.55	1008
153	187015	54.6	1008
153	187188	54.65	1008
153	187362	54.7	1008
153	187535	54.75	1008
153	187825	54.8	1008
153	188000	54.85	1008
153	188173	54.9	1008
153	188227	54.95	1008
153	188303	55	1008
153	188357	55.05	1008
153	188411	55.1	1008
153	188465	55.15	1008
153	188638	55.2	1008
153	188692	55.25	1008
153	188865	55.3	1008
153	189155	55.35	1008
153	189329	55.4	1008
153	189383	55.45	1008
153	189437	55.5	1008
153	189610	55.55	1008
153	189664	55.6	1008
153	189837	55.65	1008
153	190010	55.7	1008
153	190183	55.75	1008
153	190357	55.8	1008
153	190647	55.85	1008
153	190821	55.9	1008
153	191111	55.95	1008
153	191425	56	1008
153	191716	56.05	1008
153	191890	56.1	1008
153	191945	56.15	1008
153	192118	56.2	1008
153	192172	56.25	1008
153	192345	56.3	1008
153	192518	56.35	1008
153	192573	56.4	1008
153	192746	56.45	1008
153	192919	56.5	1008
153	192973	56.55	1008
153	193146	56.6	1008
153	193200	56.65	1008
153	193373	56.7	1008
153	193427	56.75	1008
153	193482	56.8	1008
153	193655	56.85	1008
153	193828	56.9	1008
153	194001	56.95	1008
153	194196	57	1008
153	194486	57.05	1008
153	194541	57.1	1008
153	194595	57.15	1008
153	194768	57.2	1008
153	194822	57.25	1008
153	194876	57.3	1008
153	194930	57.35	1008
153	195220	57.4	1008
153	195394	57.45	1008
153	195567	57.5	1008
153	195740	57.55	1008
153	195913	57.6	1008
153	195967	57.65	1008
153	196140	57.7	1008
153	196314	57.75	1008
153	196487	57.8	1008
153	196660	57.85	1008
153	196714	57.9	1008
153	196887	57.95	1008
153	197200	58	1008
153	197376	58.05	1008
153	197550	58.1	1008
153	197604	58.15	1008
153	197777	58.2	1008
153	197831	58.25	1008
153	198004	58.3	1008
153	198058	58.35	1008
153	198348	58.4	1008
153	198522	58.45	1008
153	198576	58.5	1008
153	198630	58.55	1008
153	198803	58.6	1008
153	199093	58.65	1008
153	199148	58.7	1008
153	199321	58.75	1008
153	199494	58.8	1008
153	199667	58.85	1008
153	199840	58.9	1008
153	199894	58.95	1008
153	200089	59	1008
153	200143	59.05	1008
153	200433	59.1	1008
153	200607	59.15	1008
153	200897	59.2	1008
153	201188	59.25	1008
153	201479	59.3	1008
153	201653	59.35	1008
153	201826	59.4	1008
153	201999	59.45	1008
153	202172	59.5	1008
153	202345	59.55	1008
153	202518	59.6	1008
153	202691	59.65	1008
153	202746	59.7	1008
153	202919	59.75	1008
153	203092	59.8	1008
153	203265	59.85	1008
153	203555	59.9	1008
153	203729	59.95	1008
153	203927	60	1008
161	0	0	0
161	0	0	2
161	78	0.050676090866	3
161	101	0.051166090866	2
161	448	0.37174212794	3
161	471	0.37223212794	2
161	1874	0.855372874784	3
161	1897	0.855862874784	2
161	3672	0.881021143508	3
161	3697	0.889319143508	2
161	3725	0.889339143508	3
161	3749	0.897637143508	2
161	3777	0.898077143508	3
161	3828	0.906375143508	2
161	3908	0.90669665055	3
161	3965	0.91499465055	2
161	3988	0.91507465055	3
161	4036	0.92337265055	2
161	4093	0.923534157592	3
161	4141	0.931832157592	2
161	4197	0.932432157592	3
161	4222	0.940730157592	2
161	4248	0.941130157592	3
161	4273	0.949428157592	2
161	4301	0.949728157592	3
161	4329	0.958026157592	2
161	4355	0.958066157592	3
161	4379	0.966364157592	2
161	4490	0.975703664634	3
161	4547	0.984001664634	2
161	4630	0.992881171676	3
161	4704	1.001179171676	2
161	4760	1.001719171676	3
161	4784	1.010017171676	2
161	4812	1.010157171676	3
161	4837	1.018455171676	2
161	4865	1.018675171676	3
161	4889	1.026973171676	2
161	4962	1.035272678718	3
161	5022	1.043570678718	2
161	5048	1.043850678718	3
161	5106	1.052148678718	2
161	5193	1.06100818576	3
161	5240	1.06930618576	2
161	5266	1.06956618576	3
161	5320	1.07786418576	2
161	5353	1.1006	3
161	5376	1.108898	2
161	5407	1.15026	3
161	5430	1.158558	2
161	5580	1.20022	3
161	5603	1.208518	2
161	5753	1.25008	3
161	5776	1.258378	2
161	5926	1.3001	3
161	5949	1.308398	2
161	6099	1.35018	3
161	6122	1.358478	2
161	6272	1.40002	3
161	6295	1.408318	2
161	6562	1.45046	3
161	6586	1.458758	2
161	6853	1.50032	3
161	6877	1.508618	2
161	6908	1.55026	3
161	6931	1.558558	2
161	7081	1.60012	3
161	7104	1.608418	2
161	7254	1.65036	3
161	7277	1.658658	2
161	7427	1.70054	3
161	7450	1.708838	2
161	7717	1.75024	3
161	7741	1.758538	2
161	7772	1.8004	3
161	7795	1.808698	2
161	8062	1.85058	3
161	8086	1.858878	2
161	8353	1.90048	3
161	8377	1.908778	2
161	8527	1.95044	3
161	8550	1.958738	2
161	8722	2.00038	3
161	8745	2.008678	2
161	8895	2.05006	3
161	8918	2.058358	2
161	9185	2.1003	3
161	9209	2.108598	2
161	9359	2.15008	3
161	9382	2.158378	2
161	9413	2.20016	3
161	9436	2.208458	2
161	9586	2.25004	3
161	9609	2.258338	2
161	9759	2.3003	3
161	9782	2.308598	2
161	9932	2.35028	3
161	9955	2.358578	2
161	10252	2.40024	3
161	10276	2.408538	2
161	10307	2.45022	3
161	10330	2.458518	2
161	10361	2.50014	3
161	10384	2.508438	2
161	10651	2.55002	3
161	10675	2.558318	2
161	10942	2.60054	3
161	10966	2.608838	2
161	11116	2.65054	3
161	11139	2.658838	2
161	11406	2.7	3
161	11430	2.708298	2
161	11697	2.75032	3
161	11721	2.758618	2
161	11871	2.80038	3
161	11894	2.808678	2
161	12161	2.85028	3
161	12217	2.858578	2
161	12473	2.90024	3
161	12496	2.908538	2
161	12763	2.95036	3
161	12787	2.958658	2
161	12959	3.00002	3
161	12982	3.008318	2
161	13132	3.0502	3
161	13155	3.058498	2
161	13422	3.10014	3
161	13446	3.108438	2
161	13596	3.1506	3
161	13619	3.158898	2
161	13769	3.20056	3
161	13792	3.208858	2
161	13823	3.25056	3
161	13846	3.258858	2
161	13996	3.30026	3
161	14019	3.308558	2
161	14169	3.35022	3
161	14192	3.358518	2
161	14459	3.40026	3
161	14483	3.408558	2
161	14750	3.45028	3
161	14774	3.458578	2
161	14924	3.50052	3
161	14947	3.508818	2
161	15097	3.55048	3
161	15120	3.558778	2
161	15270	3.60052	3
161	15293	3.608818	2
161	15443	3.65062	3
161	15466	3.658918	2
161	15733	3.7005	3
161	15757	3.708798	2
161	15788	3.75022	3
161	15811	3.758518	2
161	15961	3.80062	3
161	15984	3.808918	2
161	16134	3.85026	3
161	16157	3.858558	2
161	16188	3.90056	3
161	16211	3.908858	2
161	16242	3.95012	3
161	16265	3.958418	2
161	16437	4.00058	3
161	16460	4.008878	2
161	16610	4.05012	3
161	16633	4.058418	2
161	16783	4.1004	3
161	16806	4.108698	2
161	17073	4.15028	3
161	17097	4.158578	2
161	17364	4.20024	3
161	17388	4.208538	2
161	17538	4.2503	3
161	17561	4.258598	2
161	17828	4.30032	3
161	17852	4.308618	2
161	17883	4.35028	3
161	17906	4.358578	2
161	18056	4.40016	3
161	18079	4.408458	2
161	18110	4.45048	3
161	18133	4.458778	2
161	18400	4.50058	3
161	18424	4.508878	2
161	18691	4.5503	3
161	18715	4.558598	2
161	18982	4.60052	3
161	19006	4.608818	2
161	19273	4.65016	3
161	19297	4.658458	2
161	19328	4.70008	3
161	19351	4.708378	2
161	19501	4.75006	3
161	19524	4.758358	2
161	19791	4.8002	3
161	19815	4.808498	2
161	20086	4.85002	3
161	20110	4.858318	2
161	20378	4.90032	3
161	20402	4.908618	2
161	20552	4.95062	3
161	20575	4.958918	2
161	20628	5.00058	3
161	20651	5.008878	2
161	20682	5.05054	3
161	20705	5.058838	2
161	20736	5.10034	3
161	20759	5.108638	2
161	20909	5.15034	3
161	20932	5.158638	2
161	21082	5.20048	3
161	21105	5.208778	2
161	21372	5.25054	3
161	21396	5.258838	2
161	21546	5.30062	3
161	21569	5.308918	2
161	21836	5.35034	3
161	21860	5.358638	2
161	22010	5.4	3
161	22033	5.408298	2
161	22064	5.45048	3
161	22087	5.458778	2
161	22237	5.50028	3
161	22260	5.508578	2
161	22291	5.5501	3
161	22314	5.558398	2
161	22464	5.60058	3
161	22487	5.608878	2
161	22754	5.65054	3
161	22778	5.658838	2
161	23045	5.7001	3
161	23069	5.708398	2
161	23219	5.75056	3
161	23242	5.758858	2
161	23392	5.80026	3
161	23415	5.808558	2
161	23682	5.85058	3
161	23706	5.858878	2
161	23856	5.9006	3
161	23879	5.908898	2
161	24029	5.95024	3
161	24052	5.958538	2
161	24224	6.00008	3
161	24247	6.008378	2
161	24514	6.05062	3
161	24538	6.058918	2
161	24570	6.10056	3
161	24593	6.108858	2
161	24625	6.1503	3
161	24648	6.158598	2
161	24915	6.20018	3
161	24939	6.208478	2
161	24975	6.25006	3
161	24998	6.258358	2
161	25155	6.30054	3
161	25178	6.308838	2
161	25209	6.35042	3
161	25232	6.358718	2
161	25385	6.40038	3
161	25408	6.408678	2
161	25439	6.45056	3
161	25462	6.458858	2
161	25493	6.50002	3
161	25516	6.508318	2
161	25666	6.55026	3
161	25689	6.558558	2
161	25839	6.60056	3
161	25862	6.608858	2
161	26012	6.65044	3
161	26035	6.658738	2
161	26185	6.7001	3
161	26208	6.708398	2
161	26358	6.75058	3
161	26381	6.758878	2
161	26533	6.80026	3
161	26556	6.808558	2
161	26589	6.85022	3
161	26613	6.858518	2
161	26763	6.90018	3
161	26786	6.908478	2
161	26936	6.95022	3
161	26959	6.958518	2
161	27131	7.0005	3
161	27154	7.008798	2
161	27421	7.0502	3
161	27445	7.058498	2
161	27595	7.10008	3
161	27618	7.108378	2
161	27768	7.1505	3
161	27791	7.158798	2
161	27822	7.20014	3
161	27845	7.208438	2
161	27995	7.2505	3
161	28018	7.258798	2
161	28168	7.3004	3
161	28191	7.308698	2
161	28222	7.35036	3
161	28245	7.358658	2
161	28276	7.4003	3
161	28299	7.408598	2
161	28566	7.45028	3
161	28590	7.458578	2
161	28740	7.50022	3
161	28763	7.508518	2
161	28913	7.55054	3
161	28936	7.558838	2
161	29203	7.60032	3
161	29227	7.608618	2
161	29258	7.65034	3
161	29281	7.658638	2
161	29312	7.70006	3
161	29335	7.708358	2
161	29485	7.7505	3
161	29508	7.758798	2
161	29658	7.80012	3
161	29681	7.808418	2
161	29712	7.85062	3
161	29735	7.858918	2
161	29885	7.9006	3
161	29908	7.908898	2
161	30117	7.95054	3
161	30140	7.958838	2
161	30312	8.00024	3
161	30335	8.008538	2
161	30485	8.0505	3
161	30508	8.058798	2
161	30658	8.10006	3
161	30681	8.108358	2
161	30948	8.15034	3
161	30972	8.158638	2
161	31124	8.20048	3
161	31147	8.208778	2
161	31297	8.25028	3
161	31320	8.258578	2
161	31470	8.30018	3
161	31493	8.308478	2
161	31643	8.35028	3
161	31666	8.358578	2
161	31816	8.40044	3
161	31839	8.408738	2
161	31989	8.4502	3
161	32012	8.458498	2
161	32279	8.50012	3
161	32303	8.508418	2
161	32334	8.5501	3
161	32357	8.558398	2
161	32388	8.60046	3
161	32411	8.608758	2
161	32561	8.65016	3
161	32584	8.658458	2
161	32734	8.7006	3
161	32757	8.708898	2
161	33025	8.75044	3
161	33049	8.758738	2
161	33082	8.80014	3
161	33105	8.808438	2
161	33255	8.85018	3
161	33278	8.858478	2
161	33428	8.90002	3
161	33451	8.908318	2
161	33601	8.95036	3
161	33624	8.958658	2
161	33913	9.00026	3
161	33937	9.008558	2
161	34204	9.0503	3
161	34228	9.058598	2
161	34378	9.10002	3
161	34401	9.108318	2
161	34668	9.15046	3
161	34692	9.158758	2
161	34842	9.20032	3
161	34865	9.208618	2
161	35132	9.25044	3
161	35156	9.258738	2
161	35423	9.3001	3
161	35447	9.308398	2
161	35478	9.3505	3
161	35501	9.358798	2
161	35532	9.4001	3
161	35555	9.408398	2
161	35705	9.45038	3
161	35728	9.458678	2
161	35995	9.50008	3
161	36019	9.508378	2
161	36169	9.55	3
161	36192	9.558298	2
161	36223	9.60004	3
161	36246	9.608338	2
161	36396	9.65018	3
161	36419	9.658478	2
161	36569	9.7001	3
161	36592	9.708398	2
161	36742	9.75	3
161	36765	9.758298	2
161	37032	9.80008	3
161	37056	9.808378	2
161	37206	9.85042	3
161	37229	9.858718	2
161	37260	9.90018	3
161	37283	9.908478	2
161	37433	9.95058	3
161	37456	9.958878	2
161	37745	10.00006	3
161	37769	10.008358	2
161	38036	10.05012	3
161	38060	10.058418	2
161	38210	10.10062	3
161	38233	10.108918	2
161	38502	10.15034	3
161	38526	10.158638	2
161	38676	10.20052	3
161	38699	10.208818	2
161	38849	10.2506	3
161	38872	10.258898	2
161	38903	10.30004	3
161	38926	10.308338	2
161	39076	10.35018	3
161	39099	10.358478	2
161	39249	10.4003	3
161	39272	10.408598	2
161	39422	10.45002	3
161	39445	10.458318	2
161	39595	10.50028	3
161	39618	10.508578	2
161	39768	10.55036	3
161	39791	10.558658	2
161	39822	10.60062	3
161	39845	10.608918	2
161	39995	10.65044	3
161	40018	10.658738	2
161	40050	10.70036	3
161	40073	10.708658	2
161	40106	10.75038	3
161	40129	10.758678	2
161	40279	10.80014	3
161	40302	10.808438	2
161	40452	10.85052	3
161	40475	10.858818	2
161	40506	10.90036	3
161	40529	10.908658	2
161	40796	10.95008	3
161	40820	10.958378	2
161	40992	11.00012	3
161	41015	11.008418	2
161	41282	11.0504	3
161	41306	11.058698	2
161	41337	11.10006	3
161	41360	11.108358	2
161	41627	11.15012	3
161	41651	11.158418	2
161	41918	11.20052	3
161	41942	11.208818	2
161	42209	11.25042	3
161	42233	11.258718	2
161	42383	11.30058	3
161	42406	11.308878	2
161	42556	11.35044	3
161	42579	11.358738	2
161	42729	11.40018	3
161	42752	11.408478	2
161	42902	11.45014	3
161	42925	11.458438	2
161	43192	11.50046	3
161	43216	11.508758	2
161	43366	11.55032	3
161	43389	11.558618	2
161	43420	11.60058	3
161	43443	11.608878	2
161	43593	11.65018	3
161	43616	11.658478	2
161	43766	11.70044	3
161	43789	11.708738	2
161	43939	11.75006	3
161	43962	11.758358	2
161	44112	11.80018	3
161	44135	11.808478	2
161	44285	11.85034	3
161	44308	11.858638	2
161	44458	11.9005	3
161	44481	11.908798	2
161	44631	11.95	3
161	44654	11.958298	2
161	44707	12.00038	3
161	44730	12.008678	2
161	44999	12.05012	3
161	45023	12.058418	2
161	45173	12.10054	3
161	45196	12.108838	2
161	45346	12.1505	3
161	45369	12.158798	2
161	45519	12.20002	3
161	45542	12.208318	2
161	45692	12.2502	3
161	45715	12.258498	2
161	45982	12.30052	3
161	46006	12.308818	2
161	46156	12.3501	3
161	46179	12.358398	2
161	46359	12.4001	3
161	46382	12.408398	2
161	46413	12.4504	3
161	46436	12.458698	2
161	46703	12.50056	3
161	46727	12.508858	2
161	46877	12.5501	3
161	46900	12.558398	2
161	46931	12.60024	3
161	46954	12.608538	2
161	46986	12.65048	3
161	47009	12.658778	2
161	47040	12.70044	3
161	47063	12.708738	2
161	47213	12.75052	3
161	47236	12.758818	2
161	47386	12.80024	3
161	47409	12.808538	2
161	47559	12.85056	3
161	47613	12.858858	2
161	47986	12.90038	3
161	48010	12.908678	2
161	48160	12.9505	3
161	48183	12.958798	2
161	48355	13.00022	3
161	48378	13.008518	2
161	48528	13.05034	3
161	48551	13.058638	2
161	48701	13.10052	3
161	48724	13.108818	2
161	48991	13.15024	3
161	49015	13.158538	2
161	49282	13.20062	3
161	49306	13.208918	2
161	49573	13.25058	3
161	49597	13.258878	2
161	49864	13.30048	3
161	49888	13.308778	2
161	50155	13.35056	3
161	50179	13.358858	2
161	50210	13.40044	3
161	50233	13.408738	2
161	50500	13.45006	3
161	50524	13.458358	2
161	50555	13.5001	3
161	50578	13.508398	2
161	50728	13.5504	3
161	50751	13.558698	2
161	50782	13.60028	3
161	50805	13.608578	2
161	51072	13.65006	3
161	51096	13.658358	2
161	51246	13.70024	3
161	51269	13.708538	2
161	51419	13.75056	3
161	51442	13.758858	2
161	51592	13.8001	3
161	51615	13.808398	2
161	51765	13.85042	3
161	51788	13.858718	2
161	51819	13.90024	3
161	51842	13.908538	2
161	51992	13.95006	3
161	52015	13.958358	2
161	52187	14.00024	3
161	52210	14.008538	2
161	52241	14.0502	3
161	52264	14.058498	2
161	52531	14.10054	3
161	52555	14.108838	2
161	52705	14.1502	3
161	52728	14.158498	2
161	52995	14.20006	3
161	53019	14.208358	2
161	53169	14.25004	3
161	53192	14.258338	2
161	53342	14.30002	3
161	53365	14.308318	2
161	53515	14.35028	3
161	53538	14.358578	2
161	53569	14.40062	3
161	53592	14.408918	2
161	53742	14.45004	3
161	53765	14.458338	2
161	53798	14.5002	3
161	53821	14.508498	2
161	53852	14.55008	3
161	53875	14.558378	2
161	53906	14.60054	3
161	53929	14.608838	2
161	54196	14.65038	3
161	54220	14.658678	2
161	54487	14.70058	3
161	54511	14.708878	2
161	54542	14.75042	3
161	54565	14.758718	2
161	54715	14.80058	3
161	54738	14.808878	2
161	54890	14.85032	3
161	54913	14.858618	2
161	54945	14.90024	3
161	54968	14.908538	2
161	54999	14.9503	3
161	55022	14.958598	2
161	55311	15.00018	3
161	55335	15.008478	2
161	55366	15.05054	3
161	55389	15.058838	2
161	55656	15.10034	3
161	55680	15.108638	2
161	55711	15.15036	3
161	55734	15.158658	2
161	55765	15.20008	3
161	55788	15.208378	2
161	55938	15.25016	3
161	55961	15.258458	2
161	56111	15.3005	3
161	56134	15.308798	2
161	56401	15.35	3
161	56425	15.358298	2
161	56575	15.40038	3
161	56598	15.408678	2
161	56629	15.45044	3
161	56652	15.458738	2
161	56683	15.50042	3
161	56706	15.508718	2
161	56737	15.55018	3
161	56760	15.558478	2
161	56910	15.60022	3
161	56933	15.608518	2
161	57083	15.65016	3
161	57106	15.658458	2
161	57256	15.7001	3
161	57279	15.708398	2
161	57429	15.75046	3
161	57452	15.758758	2
161	57602	15.80018	3
161	57625	15.808478	2
161	57892	15.85058	3
161	57916	15.858878	2
161	58066	15.90024	3
161	58089	15.908538	2
161	58120	15.95004	3
161	58143	15.958338	2
161	58315	16.00062	3
161	58338	16.008918	2
161	58369	16.05036	3
161	58392	16.058658	2
161	58543	16.10038	3
161	58566	16.108678	2
161	58717	16.15018	3
161	58740	16.158478	2
161	59009	16.20048	3
161	59033	16.208778	2
161	59188	16.25046	3
161	59211	16.258758	2
161	59368	16.30028	3
161	59391	16.308578	2
161	59422	16.35006	3
161	59445	16.358358	2
161	59479	16.40012	3
161	59502	16.408418	2
161	59652	16.45018	3
161	59675	16.458478	2
161	59825	16.50062	3
161	59848	16.508918	2
161	59879	16.55046	3
161	59902	16.558758	2
161	60052	16.60022	3
161	60075	16.608518	2
161	60106	16.6505	3
161	60129	16.658798	2
161	60160	16.70024	3
161	60183	16.708538	2
161	60333	16.7501	3
161	60356	16.758398	2
161	60508	16.80042	3
161	60531	16.808718	2
161	60799	16.8504	3
161	60823	16.858698	2
161	60973	16.90058	3
161	60996	16.908878	2
[...]
296	172895	50.267897744181	3
296	172926	50.276195744181	1
296	172949	50.276816265484	3
296	172975	50.285114265484	1
296	173014	50.28517545209	2
296	173048	50.29347345209	1
296	173129	50.309159509318	3
296	173163	50.317457509318	1
296	173186	50.317717744181	3
296	173217	50.326015744181	1
296	173302	50.358919509318	3
296	173336	50.367217509318	1
296	173359	50.367637744181	3
296	173390	50.375935744181	1
296	173413	50.376276265484	3
296	173439	50.384574265484	1
296	173478	50.38491545209	2
296	173512	50.39321345209	1
296	173593	50.408999509318	3
296	173627	50.417297509318	1
296	173650	50.417437744181	3
296	173681	50.425735744181	1
296	173820	50.509139509318	3
296	173854	50.517437509318	1
296	173877	50.517557744181	3
296	173908	50.525855744181	1
296	173993	50.558719509318	3
296	174027	50.567017509318	1
296	174050	50.567477744181	3
296	174081	50.575775744181	1
296	174220	50.659279509318	3
296	174254	50.667577509318	1
296	174277	50.667917744181	3
296	174308	50.676215744181	1
296	174331	50.676736265484	3
296	174357	50.685034265484	1
296	174560	50.809039509318	3
296	174594	50.817337509318	1
296	174617	50.817557744181	3
296	174648	50.825855744181	1
296	174671	50.826256265484	3
296	174697	50.834554265484	1
296	174736	50.83483545209	2
296	174770	50.84313345209	1
296	174851	50.859039509318	3
296	174885	50.867337509318	1
296	174908	50.867697744181	3
296	174939	50.875995744181	1
296	175078	50.959259509318	3
296	175112	50.967557509318	1
296	175135	50.968077744181	3
296	175166	50.976375744181	1
296	175381	51.108979509318	3
296	175415	51.117277509318	1
296	175438	51.117477744181	3
296	175469	51.125775744181	1
296	175554	51.159299509318	3
296	175588	51.167597509318	1
296	175611	51.168137744181	3
296	175642	51.176435744181	1
296	175727	51.209339509318	3
296	175761	51.217637509318	1
296	175784	51.218197744181	3
296	175815	51.226495744181	1
296	176008	51.359079509318	3
296	176042	51.367377509318	1
296	176065	51.367597744181	3
296	176096	51.375895744181	1
296	176182	51.409039509318	3
296	176216	51.417337509318	1
296	176239	51.417757744181	3
296	176270	51.426055744181	1
296	176355	51.458799509318	3
296	176389	51.467097509318	1
296	176412	51.467237744181	3
296	176443	51.475535744181	1
296	176637	51.608499509318	3
296	176671	51.616797509318	1
296	176694	51.616917744181	3
296	176725	51.625215744181	1
296	176748	51.625276265484	3
296	176774	51.633574265484	1
296	176813	51.63391545209	2
296	176847	51.64221345209	1
296	176928	51.658859509318	3
296	176962	51.667157509318	1
296	176985	51.667177744181	3
296	177016	51.675475744181	1
296	177039	51.675596265484	3
296	177065	51.683894265484	1
296	177104	51.68423545209	2
296	177138	51.69253345209	1
296	177273	51.759199509318	3
296	177307	51.767497509318	1
296	177330	51.767637744181	3
296	177361	51.775935744181	1
296	177384	51.776316265484	3
296	177410	51.784614265484	1
296	177449	51.78511545209	2
296	177483	51.79341345209	1
296	177618	51.859339509318	3
296	177652	51.867637509318	1
296	177675	51.867877744181	3
296	177706	51.876175744181	1
296	177792	51.908839509318	3
296	177826	51.917137509318	1
296	177849	51.917537744181	3
296	177880	51.925835744181	1
296	177965	51.958539509318	3
296	177999	51.966837509318	1
296	178022	51.967377744181	3
296	178053	51.975675744181	1
296	178076	51.975876265484	3
296	178102	51.984174265484	1
296	178141	51.98421545209	2
296	178175	51.99251345209	1
296	178279	52.009139509318	3
296	178313	52.017437509318	1
296	178336	52.017857744181	3
296	178367	52.026155744181	1
296	178452	52.058499509318	3
296	178486	52.066797509318	1
296	178509	52.067217744181	3
296	178540	52.075515744181	1
296	178625	52.109099509318	3
296	178659	52.117397509318	1
296	178682	52.117957744181	3
296	178713	52.126255744181	1
296	178798	52.158759509318	3
296	178832	52.167057509318	1
296	178855	52.167457744181	3
296	178887	52.175755744181	1
296	178910	52.176096265484	3
296	178936	52.184394265484	1
296	178975	52.18463545209	2
296	179009	52.19293345209	1
296	179090	52.208939509318	3
296	179124	52.217237509318	1
296	179147	52.217577744181	3
296	179178	52.225875744181	1
296	179263	52.259179509318	3
296	179297	52.267477509318	1
296	179320	52.267977744181	3
296	179351	52.276275744181	1
296	179436	52.309139509318	3
296	179470	52.317437509318	1
296	179493	52.317677744181	3
296	179524	52.325975744181	1
296	179609	52.358619509318	3
296	179643	52.366917509318	1
296	179666	52.367517744181	3
296	179697	52.375815744181	1
296	179836	52.459379509318	3
296	179870	52.467677509318	1
296	179893	52.467877744181	3
296	179924	52.476175744181	1
296	180009	52.508819509318	3
296	180043	52.517117509318	1
296	180066	52.517517744181	3
296	180097	52.525815744181	1
296	180182	52.559239509318	3
296	180216	52.567537509318	1
296	180239	52.567817744181	3
296	180270	52.576115744181	1
296	180355	52.608719509318	3
296	180389	52.617017509318	1
296	180412	52.617277744181	3
296	180443	52.625575744181	1
296	180528	52.659179509318	3
296	180562	52.667477509318	1
296	180585	52.667737744181	3
296	180616	52.676035744181	1
296	180639	52.676556265484	3
296	180665	52.684854265484	1
296	180704	52.68509545209	2
296	180738	52.69339345209	1
296	180819	52.708859509318	3
296	180853	52.717157509318	1
296	180876	52.717377744181	3
296	180907	52.725675744181	1
296	181046	52.808859509318	3
296	181080	52.817157509318	1
296	181103	52.817757744181	3
296	181135	52.826055744181	1
296	181158	52.826076265484	3
296	181184	52.834374265484	1
296	181223	52.83443545209	2
296	181258	52.84273345209	1
296	181339	52.858759509318	3
296	181373	52.867057509318	1
296	181396	52.867157744181	3
296	181427	52.875455744181	1
296	181512	52.909159509318	3
296	181546	52.917457509318	1
296	181569	52.917697744181	3
296	181600	52.925995744181	1
296	181623	52.926556265484	3
296	181649	52.934854265484	1
296	181688	52.93487545209	2
296	181722	52.94317345209	1
296	181803	52.958959509318	3
296	181837	52.967257509318	1
296	181860	52.967717744181	3
296	181891	52.976015744181	1
296	182052	53.058839509318	3
296	182086	53.067137509318	1
296	182109	53.067537744181	3
296	182140	53.075835744181	1
296	182225	53.109039509318	3
296	182259	53.117337509318	1
296	182282	53.117697744181	3
296	182313	53.125995744181	1
296	182398	53.159079509318	3
296	182432	53.167377509318	1
296	182455	53.167517744181	3
296	182486	53.175815744181	1
296	182571	53.208779509318	3
296	182605	53.217077509318	1
296	182628	53.217097744181	3
296	182659	53.225395744181	1
296	182744	53.258999509318	3
296	182778	53.267297509318	1
296	182801	53.267477744181	3
296	182832	53.275775744181	1
296	182971	53.359059509318	3
296	183005	53.367357509318	1
296	183028	53.367457744181	3
296	183059	53.375755744181	1
296	183144	53.409299509318	3
296	183178	53.417597509318	1
296	183201	53.418037744181	3
296	183232	53.426335744181	1
296	183317	53.458979509318	3
296	183351	53.467277509318	1
296	183374	53.467797744181	3
296	183405	53.476095744181	1
296	183490	53.508959509318	3
296	183524	53.517257509318	1
296	183547	53.517577744181	3
296	183578	53.525875744181	1
296	183654	53.558599509318	3
296	183697	53.566897509318	1
296	183720	53.567177744181	3
296	183751	53.575475744181	1
296	183890	53.658979509318	3
296	183924	53.667277509318	1
296	183947	53.667657744181	3
296	183978	53.675955744181	1
296	184117	53.758699509318	3
296	184151	53.766997509318	1
296	184174	53.767477744181	3
296	184205	53.775775744181	1
296	184290	53.809439509318	3
296	184324	53.817737509318	1
296	184347	53.817897744181	3
296	184378	53.826195744181	1
296	184464	53.859299509318	3
296	184498	53.867597509318	1
296	184521	53.867697744181	3
296	184552	53.875995744181	1
296	184637	53.909119509318	3
296	184671	53.917417509318	1
296	184694	53.917957744181	3
296	184725	53.926255744181	1
296	184810	53.958879509318	3
296	184844	53.967177509318	1
296	184867	53.967757744181	3
296	184898	53.976055744181	1
296	185006	54.009039509318	3
296	185040	54.017337509318	1
296	185063	54.017957744181	3
296	185094	54.026255744181	1
296	185233	54.108779509318	3
296	185267	54.117077509318	1
296	185290	54.117297744181	3
296	185321	54.125595744181	1
296	185406	54.158859509318	3
296	185441	54.167157509318	1
296	185464	54.167717744181	3
296	185495	54.176015744181	1
296	185580	54.208759509318	3
296	185614	54.217057509318	1
296	185637	54.217357744181	3
296	185668	54.225655744181	1
296	185691	54.226216265484	3
296	185717	54.234514265484	1
296	185756	54.23457545209	2
296	185790	54.24287345209	1
296	185871	54.258879509318	3
296	185905	54.267177509318	1
296	185928	54.267597744181	3
296	185959	54.275895744181	1
296	186098	54.359179509318	3
296	186132	54.367477509318	1
296	186155	54.367717744181	3
296	186186	54.376015744181	1
296	186209	54.376136265484	3
296	186235	54.384434265484	1
296	186274	54.38473545209	2
296	186308	54.39303345209	1
296	186389	54.408939509318	3
296	186429	54.417237509318	1
296	186438	54.417237744181	3
296	186477	54.425535744181	1
296	186562	54.458559509318	3
296	186596	54.466857509318	1
296	186619	54.466937744181	3
296	186650	54.475235744181	1
296	186726	54.508319509318	3
296	186769	54.516617509318	1
296	186792	54.516757744181	3
296	186823	54.525055744181	1
296	186908	54.559179509318	3
296	186942	54.567477509318	1
296	186965	54.567677744181	3
296	186996	54.575975744181	1
296	187081	54.609279509318	3
296	187121	54.617577509318	1
296	187130	54.617577744181	3
296	187169	54.625875744181	1
296	187254	54.659399509318	3
296	187288	54.667697509318	1
296	187311	54.668017744181	3
296	187343	54.676315744181	1
296	187428	54.708979509318	3
296	187462	54.717277509318	1
296	187485	54.717517744181	3
296	187516	54.725815744181	1
296	187601	54.758799509318	3
296	187635	54.767097509318	1
296	187658	54.767237744181	3
296	187689	54.775535744181	1
296	187710	54.775536265484	3
296	187738	54.783834265484	1
296	187777	54.78445545209	2
296	187811	54.79275345209	1
296	187892	54.809039509318	3
296	187926	54.817337509318	1
296	187949	54.817797744181	3
296	187980	54.826095744181	1
296	188066	54.858999509318	3
296	188100	54.867297509318	1
296	188123	54.867417744181	3
296	188154	54.875715744181	1
296	188531	55.158619509318	3
296	188565	55.166917509318	1
296	188588	55.166937744181	3
296	188619	55.175235744181	1
296	188758	55.259299509318	3
296	188792	55.267597509318	1
296	188815	55.267677744181	3
296	188846	55.275975744181	1
296	188931	55.308859509318	3
296	188965	55.317157509318	1
296	188988	55.317477744181	3
296	189019	55.325775744181	1
296	189042	55.326036265484	3
296	189068	55.334334265484	1
296	189107	55.33495545209	2
296	189141	55.34325345209	1
296	189222	55.359199509318	3
296	189256	55.367497509318	1
296	189279	55.367657744181	3
296	189310	55.375955744181	1
296	189503	55.509139509318	3
296	189537	55.517437509318	1
296	189560	55.517537744181	3
296	189591	55.525835744181	1
296	189730	55.609279509318	3
296	189764	55.617577509318	1
296	189787	55.617657744181	3
296	189818	55.625955744181	1
296	189903	55.658859509318	3
296	189937	55.667157509318	1
296	189960	55.667697744181	3
296	189991	55.675995744181	1
296	190076	55.709259509318	3
296	190110	55.717557509318	1
296	190133	55.717957744181	3
296	190164	55.726255744181	1
296	190249	55.758699509318	3
296	190283	55.766997509318	1
296	190306	55.767237744181	3
296	190337	55.775535744181	1
296	190423	55.808739509318	3
296	190457	55.817037509318	1
296	190480	55.817437744181	3
296	190511	55.825735744181	1
296	190534	55.826276265484	3
296	190560	55.834574265484	1
296	190599	55.83499545209	2
296	190633	55.84329345209	1
296	190714	55.858599509318	3
296	190748	55.866897509318	1
296	190771	55.867197744181	3
296	190802	55.875495744181	1
296	190887	55.908999509318	3
296	190921	55.917297509318	1
296	190944	55.917877744181	3
296	190975	55.926175744181	1
296	190998	55.926196265484	3
296	191024	55.934494265484	1
296	191063	55.93495545209	2
296	191097	55.94325345209	1
296	191179	55.958999509318	3
296	191213	55.967297509318	1
296	191236	55.967617744181	3
296	191267	55.975915744181	1
296	191290	55.976256265484	3
296	191316	55.984554265484	1
296	191355	55.98465545209	2
296	191389	55.99295345209	1
296	191492	56.008619509318	3
296	191526	56.016917509318	1
296	191549	56.016997744181	3
296	191580	56.025295744181	1
296	191603	56.025896265484	3
296	191629	56.034194265484	1
296	191668	56.03437545209	2
296	191702	56.04267345209	1
296	191783	56.059459509318	3
296	191817	56.067757509318	1
296	191840	56.067837744181	3
296	191871	56.076135744181	1
296	192011	56.158879509318	3
296	192045	56.167177509318	1
296	192068	56.167257744181	3
296	192099	56.175555744181	1
296	192238	56.259259509318	3
296	192272	56.267557509318	1
296	192295	56.267897744181	3
296	192326	56.276195744181	1
296	192411	56.308839509318	3
296	192445	56.317137509318	1
296	192468	56.317637744181	3
296	192499	56.325935744181	1
296	192639	56.409019509318	3
296	192673	56.417317509318	1
296	192696	56.417657744181	3
296	192727	56.425955744181	1
296	192812	56.458679509318	3
296	192846	56.466977509318	1
296	192869	56.467397744181	3
296	192900	56.475695744181	1
296	193039	56.559019509318	3
296	193073	56.567317509318	1
296	193096	56.567417744181	3
296	193127	56.575715744181	1
296	193266	56.658879509318	3
296	193300	56.667177509318	1
296	193323	56.667277744181	3
296	193354	56.675575744181	1
296	193548	56.808779509318	3
296	193582	56.817077509318	1
296	193605	56.817437744181	3
296	193636	56.825735744181	1
296	193721	56.858899509318	3
296	193755	56.867197509318	1
296	193778	56.867777744181	3
296	193809	56.876075744181	1
296	193894	56.908359509318	3
296	193928	56.916657509318	1
296	193951	56.916977744181	3
296	193982	56.925275744181	1
296	194067	56.958859509318	3
296	194101	56.967157509318	1
296	194124	56.967457744181	3
296	194155	56.975755744181	1
296	194262	57.008759509318	3
296	194296	57.017057509318	1
296	194319	57.017297744181	3
296	194350	57.025595744181	1
296	194373	57.025676265484	3
296	194399	57.033974265484	1
296	194438	57.03415545209	2
296	194472	57.04245345209	1
296	194661	57.158999509318	3
296	194695	57.167297509318	1
296	194718	57.167597744181	3
296	194749	57.175895744181	1
296	194996	57.359019509318	3
296	195030	57.367317509318	1
296	195053	57.367737744181	3
296	195084	57.376035744181	1
296	195107	57.376316265484	3
296	195133	57.384614265484	1
296	195172	57.38485545209	2
296	195206	57.39315345209	1
296	195287	57.409039509318	3
296	195321	57.417337509318	1
296	195344	57.417697744181	3
296	195375	57.425995744181	1
296	195460	57.458859509318	3
296	195494	57.467157509318	1
296	195517	57.467597744181	3
296	195548	57.475895744181	1
296	195633	57.508559509318	3
296	195667	57.516857509318	1
296	195690	57.517197744181	3
296	195721	57.525495744181	1
296	195806	57.558619509318	3
296	195840	57.566917509318	1
296	195863	57.567537744181	3
296	195894	57.575835744181	1
296	196033	57.658879509318	3
296	196067	57.667177509318	1
296	196090	57.667297744181	3
296	196121	57.675595744181	1
296	196206	57.709079509318	3
296	196240	57.717377509318	1
296	196263	57.717637744181	3
296	196294	57.725935744181	1
296	196380	57.758479509318	3
296	196414	57.766777509318	1
296	196437	57.766957744181	3
296	196468	57.775255744181	1
296	196553	57.809419509318	3
296	196587	57.817717509318	1
296	196610	57.818217744181	3
296	196641	57.826515744181	1
296	196780	57.909059509318	3
296	196814	57.917357509318	1
296	196837	57.917677744181	3
296	196868	57.925975744181	1
296	196954	57.958879509318	3
296	196988	57.967177509318	1
296	197011	57.967697744181	3
296	197042	57.975995744181	1
296	197065	57.976216265484	3
296	197091	57.984514265484	1
296	197130	57.98475545209	2
296	197164	57.99305345209	1
296	197267	58.008519509318	3
296	197301	58.016817509318	1
296	197324	58.017077744181	3
296	197356	58.025375744181	1
296	197442	58.059379509318	3
296	197476	58.067677509318	1
296	197499	58.067697744181	3
296	197531	58.075995744181	1
296	197670	58.158979509318	3
296	197710	58.167277509318	1
296	197719	58.167277744181	3
296	197758	58.175575744181	1
296	197897	58.258639509318	3
296	197931	58.266937509318	1
296	197954	58.267417744181	3
296	197985	58.275715744181	1
296	198124	58.358939509318	3
296	198158	58.367237509318	1
296	198181	58.367657744181	3
296	198212	58.375955744181	1
296	198235	58.376036265484	3
296	198261	58.384334265484	1
296	198300	58.38455545209	2
296	198334	58.39285345209	1
296	198415	58.408699509318	3
296	198449	58.416997509318	1
296	198472	58.417337744181	3
296	198503	58.425635744181	1
296	198696	58.559159509318	3
296	198730	58.567457509318	1
296	198753	58.567857744181	3
296	198784	58.576155744181	1
296	198869	58.609079509318	3
296	198903	58.617377509318	1
296	198926	58.617657744181	3
296	198957	58.625955744181	1
296	198980	58.626516265484	3
296	199006	58.634814265484	1
296	199045	58.63519545209	2
296	199079	58.64349345209	1
296	199214	58.709199509318	3
296	199248	58.717497509318	1
296	199271	58.717617744181	3
296	199302	58.725915744181	1
296	199387	58.758839509318	3
296	199421	58.767137509318	1
296	199444	58.767677744181	3
296	199475	58.775975744181	1
296	199560	58.809319509318	3
296	199594	58.817617509318	1
296	199617	58.817657744181	3
296	199648	58.825955744181	1
296	199733	58.859059509318	3
296	199767	58.867357509318	1
296	199790	58.867617744181	3
296	199821	58.875915744181	1
296	199960	58.958519509318	3
296	199994	58.966817509318	1
296	200017	58.967217744181	3
296	200048	58.975515744181	1
296	200209	59.059319509318	3
296	200243	59.067617509318	1
296	200266	59.067877744181	3
296	200297	59.076175744181	1
296	200320	59.076556265484	3
296	200346	59.084854265484	1
296	200384	59.08485545209	2
296	200419	59.09315345209	1
296	200500	59.109259509318	3
296	200534	59.117557509318	1
296	200557	59.117657744181	3
296	200588	59.125955744181	1
296	200673	59.158979509318	3
296	200707	59.167277509318	1
296	200730	59.167717744181	3
296	200761	59.176015744181	1
296	200784	59.176496265484	3
296	200810	59.184794265484	1
296	200849	59.18495545209	2
296	200883	59.19325345209	1
296	200964	59.209019509318	3
296	200998	59.217317509318	1
296	201021	59.217937744181	3
296	201052	59.226235744181	1
296	201075	59.226256265484	3
296	201101	59.234554265484	1
296	201140	59.23517545209	2
296	201174	59.24347345209	1
296	201255	59.258639509318	3
296	201289	59.266937509318	1
296	201312	59.267137744181	3
296	201343	59.275435744181	1
296	201366	59.275896265484	3
296	201392	59.284194265484	1
296	201431	59.28461545209	2
296	201465	59.29291345209	1
296	201546	59.309139509318	3
296	201580	59.317437509318	1
296	201603	59.317637744181	3
296	201634	59.325935744181	1
296	201719	59.358539509318	3
296	201753	59.366837509318	1
296	201776	59.367177744181	3
296	201807	59.375475744181	1
296	201892	59.409399509318	3
296	201926	59.417697509318	1
296	201949	59.418317744181	3
296	201980	59.426615744181	1
296	202065	59.459299509318	3
296	202099	59.467597509318	1
296	202122	59.468017744181	3
296	202153	59.476315744181	1
296	202238	59.508779509318	3
296	202272	59.517077509318	1
296	202295	59.517557744181	3
296	202326	59.525855744181	1
296	202411	59.558779509318	3
296	202445	59.567077509318	1
296	202468	59.567497744181	3
296	202499	59.575795744181	1
296	202584	59.608739509318	3
296	202618	59.617037509318	1
296	202641	59.617097744181	3
296	202672	59.625395744181	1
296	202812	59.709259509318	3
296	202846	59.717557509318	1
296	202869	59.717737744181	3
296	202900	59.726035744181	1
296	202985	59.758859509318	3
296	203019	59.767157509318	1
296	203042	59.767757744181	3
296	203073	59.776055744181	1
296	203158	59.808979509318	3
296	203192	59.817277509318	1
296	203215	59.817697744181	3
296	203246	59.825995744181	1
296	203331	59.859499509318	3
296	203371	59.867797509318	1
296	203380	59.867797744181	3
296	203419	59.876095744181	1
296	203442	59.876636265484	3
296	203468	59.884934265484	1
296	203507	59.88519545209	2
296	203541	59.89349345209	1
296	203622	59.908939509318	3
296	203656	59.917237509318	1
296	203679	59.917797744181	3
296	203710	59.926095744181	1
296	203796	59.958919509318	3
296	203830	59.967217509318	1
296	203853	59.967417744181	3
296	203884	59.975715744181	1
297	1309	0.380637617646	1
297	1310	0.380637617646	2
297	1334	0.381127617646	1
297	1334	0.381127617646	0
297	3230	0.865934523366	1
297	3231	0.865934523366	2
297	3282	0.866424523366	1
297	3282	0.866424523366	0
