version 2
run Host40_10pps-0-20161122-15:11:06-5960
attr configname Host40_10pps
attr datetime 20161122-15:11:06
attr experiment Host40_10pps
attr inifile omnetpp_40.ini
attr iterationvars ""
attr iterationvars2 $repetition=0
attr measurement ""
attr network arb_png.car_host_40
attr processid 5960
attr repetition 0
attr replication #0
attr resultdir results
attr runnumber 0
attr seedset 0
param **.aodv.activeRouteTimeout 2s
param *.configurator.addStaticRoutes false
param *.configurator.config "xml(\"<config><interface hosts='**' address='10.0.0.x' netmask='255.255.255.0'/><autoroute metric='errorRate'/></config>\")"
param *.configurator.optimizeRoutes true
param *.host*.**.bitrate 1Mbps
param *.host*.networkLayer.arpType "\"GlobalARP\""
param *.host*.routingTable.netmaskRoutes "\"\""
param *.host*.wlan[0].mac.maxQueueSize 15
param *.host*.wlan[0].mac.useAck false
param *.host*.wlan[0].macType "\"CsmaCaMac\""
param *.host*.wlan[0].radio.bandwidth 2MHz
param *.host*.wlan[0].radio.carrierFrequency 2GHz
param *.host*.wlan[0].radio.displayCommunicationRange true
param *.host*.wlan[0].radio.displayInterferenceRange true
param *.host*.wlan[0].radio.receiver.energyDetection -85dBm
param *.host*.wlan[0].radio.receiver.ignoreInterference false
param *.host*.wlan[0].radio.receiver.sensitivity -85dBm
param *.host*.wlan[0].radio.receiver.snirThreshold 4dB
param *.host*.wlan[0].radio.transmitter.communicationRange 200m
param *.host*.wlan[0].radio.transmitter.headerBitLength 0b
param *.host*.wlan[0].radio.transmitter.power 1.4mW
param *.host*.wlan[0].radio.transmitter.preambleDuration 10us
param *.host*.wlan[0].radioType "\"APSKScalarRadio\""
param *.host*.wlan[0].typename "\"WirelessNic\""
param *.hostA.numUdpApps 1
param *.hostA.udpApp[0].destAddresses "\"hostD\""
param *.hostA.udpApp[0].destPort 5000
param *.hostA.udpApp[0].messageLength 1000B
param *.hostA.udpApp[0].packetName "\"Data\""
param *.hostA.udpApp[0].sendInterval 100ms
param *.hostA.udpApp[0].typename "\"UDPBasicApp\""
param *.hostD.numUdpApps 1
param *.hostD.udpApp[0].localPort 5000
param *.hostD.udpApp[0].typename "\"UDPSink\""
param *.hostType "\"AODVRouter\""
param *.mediumType "\"APSKScalarRadioMedium\""
param *.radioMedium.backgroundNoise.power -90dBm
param *.radioMedium.mediumLimitCache.carrierFrequency 2GHz
param *.visualizer.dataLinkVisualizer.packetNameFilter "\"AODV*\""
param *.visualizer.mediumVisualizer.signalPropagationUpdateInterval 100ns
param *.visualizer.mobilityVisualizer.displayMovementTrail true
param *.visualizer.networkRouteVisualizer.packetNameFilter "\"UDPData*\""
param *.visualizer.sceneVisualizer.descriptionFigure "\"title\""

vector 12  car_host_40.hostA.wlan[0].radio  radioMode:vector  ETV
attr interpolationmode  sample-hold
attr source  radioModeChanged
attr title  "Radio mode, vector"
vector 26  car_host_40.hostD.wlan[0].radio  radioMode:vector  ETV
attr interpolationmode  sample-hold
attr source  radioModeChanged
attr title  "Radio mode, vector"
vector 32  car_host_40.hostB.wlan[0].radio  radioMode:vector  ETV
attr interpolationmode  sample-hold
attr source  radioModeChanged
attr title  "Radio mode, vector"
vector 38  car_host_40.hostC.wlan[0].radio  radioMode:vector  ETV
attr interpolationmode  sample-hold
attr source  radioModeChanged
attr title  "Radio mode, vector"
vector 44  car_host_40.hostB1.wlan[0].radio  radioMode:vector  ETV
attr interpolationmode  sample-hold
attr source  radioModeChanged
attr title  "Radio mode, vector"
vector 50  car_host_40.hostB2.wlan[0].radio  radioMode:vector  ETV
attr interpolationmode  sample-hold
attr source  radioModeChanged
attr title  "Radio mode, vector"
vector 56  car_host_40.hostB3.wlan[0].radio  radioMode:vector  ETV
attr interpolationmode  sample-hold
attr source  radioModeChanged
attr title  "Radio mode, vector"
vector 62  car_host_40.hostB4.wlan[0].radio  radioMode:vector  ETV
attr interpolationmode  sample-hold
attr source  radioModeChanged
attr title  "Radio mode, vector"
vector 68  car_host_40.hostC1.wlan[0].radio  radioMode:vector  ETV
attr interpolationmode  sample-hold
attr source  radioModeChanged
attr title  "Radio mode, vector"
vector 74  car_host_40.hostC2.wlan[0].radio  radioMode:vector  ETV
attr interpolationmode  sample-hold
attr source  radioModeChanged
attr title  "Radio mode, vector"
vector 80  car_host_40.hostC3.wlan[0].radio  radioMode:vector  ETV
attr interpolationmode  sample-hold
attr source  radioModeChanged
attr title  "Radio mode, vector"
vector 86  car_host_40.hostC4.wlan[0].radio  radioMode:vector  ETV
attr interpolationmode  sample-hold
attr source  radioModeChanged
attr title  "Radio mode, vector"
vector 92  car_host_40.hostC5.wlan[0].radio  radioMode:vector  ETV
attr interpolationmode  sample-hold
attr source  radioModeChanged
attr title  "Radio mode, vector"
vector 98  car_host_40.hostC6.wlan[0].radio  radioMode:vector  ETV
attr interpolationmode  sample-hold
attr source  radioModeChanged
attr title  "Radio mode, vector"
vector 104  car_host_40.hostB5.wlan[0].radio  radioMode:vector  ETV
attr interpolationmode  sample-hold
attr source  radioModeChanged
attr title  "Radio mode, vector"
vector 110  car_host_40.hostC7.wlan[0].radio  radioMode:vector  ETV
attr interpolationmode  sample-hold
attr source  radioModeChanged
attr title  "Radio mode, vector"
vector 116  car_host_40.hostB6.wlan[0].radio  radioMode:vector  ETV
attr interpolationmode  sample-hold
attr source  radioModeChanged
attr title  "Radio mode, vector"
vector 122  car_host_40.hostB7.wlan[0].radio  radioMode:vector  ETV
attr interpolationmode  sample-hold
attr source  radioModeChanged
attr title  "Radio mode, vector"
vector 128  car_host_40.hostC8.wlan[0].radio  radioMode:vector  ETV
attr interpolationmode  sample-hold
attr source  radioModeChanged
attr title  "Radio mode, vector"
vector 134  car_host_40.hostC9.wlan[0].radio  radioMode:vector  ETV
attr interpolationmode  sample-hold
attr source  radioModeChanged
attr title  "Radio mode, vector"
vector 140  car_host_40.hostB8.wlan[0].radio  radioMode:vector  ETV
attr interpolationmode  sample-hold
attr source  radioModeChanged
attr title  "Radio mode, vector"
vector 146  car_host_40.hostB9.wlan[0].radio  radioMode:vector  ETV
attr interpolationmode  sample-hold
attr source  radioModeChanged
attr title  "Radio mode, vector"
vector 152  car_host_40.hostC10.wlan[0].radio  radioMode:vector  ETV
attr interpolationmode  sample-hold
attr source  radioModeChanged
attr title  "Radio mode, vector"
vector 158  car_host_40.hostC11.wlan[0].radio  radioMode:vector  ETV
attr interpolationmode  sample-hold
attr source  radioModeChanged
attr title  "Radio mode, vector"
vector 164  car_host_40.hostB10.wlan[0].radio  radioMode:vector  ETV
attr interpolationmode  sample-hold
attr source  radioModeChanged
attr title  "Radio mode, vector"
vector 170  car_host_40.hostC12.wlan[0].radio  radioMode:vector  ETV
attr interpolationmode  sample-hold
attr source  radioModeChanged
attr title  "Radio mode, vector"
vector 176  car_host_40.hostB11.wlan[0].radio  radioMode:vector  ETV
attr interpolationmode  sample-hold
attr source  radioModeChanged
attr title  "Radio mode, vector"
vector 182  car_host_40.hostB12.wlan[0].radio  radioMode:vector  ETV
attr interpolationmode  sample-hold
attr source  radioModeChanged
attr title  "Radio mode, vector"
vector 188  car_host_40.hostC13.wlan[0].radio  radioMode:vector  ETV
attr interpolationmode  sample-hold
attr source  radioModeChanged
attr title  "Radio mode, vector"
vector 194  car_host_40.hostC14.wlan[0].radio  radioMode:vector  ETV
attr interpolationmode  sample-hold
attr source  radioModeChanged
attr title  "Radio mode, vector"
vector 200  car_host_40.hostB13.wlan[0].radio  radioMode:vector  ETV
attr interpolationmode  sample-hold
attr source  radioModeChanged
attr title  "Radio mode, vector"
vector 206  car_host_40.hostB14.wlan[0].radio  radioMode:vector  ETV
attr interpolationmode  sample-hold
attr source  radioModeChanged
attr title  "Radio mode, vector"
vector 212  car_host_40.hoste0.wlan[0].radio  radioMode:vector  ETV
attr interpolationmode  sample-hold
attr source  radioModeChanged
attr title  "Radio mode, vector"
vector 218  car_host_40.hoste1.wlan[0].radio  radioMode:vector  ETV
attr interpolationmode  sample-hold
attr source  radioModeChanged
attr title  "Radio mode, vector"
vector 224  car_host_40.hoste2.wlan[0].radio  radioMode:vector  ETV
attr interpolationmode  sample-hold
attr source  radioModeChanged
attr title  "Radio mode, vector"
vector 230  car_host_40.hoste3.wlan[0].radio  radioMode:vector  ETV
attr interpolationmode  sample-hold
attr source  radioModeChanged
attr title  "Radio mode, vector"
vector 236  car_host_40.hoste4.wlan[0].radio  radioMode:vector  ETV
attr interpolationmode  sample-hold
attr source  radioModeChanged
attr title  "Radio mode, vector"
vector 242  car_host_40.hoste5.wlan[0].radio  radioMode:vector  ETV
attr interpolationmode  sample-hold
attr source  radioModeChanged
attr title  "Radio mode, vector"
vector 248  car_host_40.hoste6.wlan[0].radio  radioMode:vector  ETV
attr interpolationmode  sample-hold
attr source  radioModeChanged
attr title  "Radio mode, vector"
vector 254  car_host_40.hoste7.wlan[0].radio  radioMode:vector  ETV
attr interpolationmode  sample-hold
attr source  radioModeChanged
attr title  "Radio mode, vector"
vector 260  car_host_40.hoste8.wlan[0].radio  radioMode:vector  ETV
attr interpolationmode  sample-hold
attr source  radioModeChanged
attr title  "Radio mode, vector"
vector 266  car_host_40.hoste9.wlan[0].radio  radioMode:vector  ETV
attr interpolationmode  sample-hold
attr source  radioModeChanged
attr title  "Radio mode, vector"
vector 13  car_host_40.hostA.wlan[0].radio  receptionState:vector  ETV
attr interpolationmode  sample-hold
attr source  receptionStateChanged
attr title  "Radio reception state, vector"
vector 27  car_host_40.hostD.wlan[0].radio  receptionState:vector  ETV
attr interpolationmode  sample-hold
attr source  receptionStateChanged
attr title  "Radio reception state, vector"
vector 33  car_host_40.hostB.wlan[0].radio  receptionState:vector  ETV
attr interpolationmode  sample-hold
attr source  receptionStateChanged
attr title  "Radio reception state, vector"
vector 39  car_host_40.hostC.wlan[0].radio  receptionState:vector  ETV
attr interpolationmode  sample-hold
attr source  receptionStateChanged
attr title  "Radio reception state, vector"
vector 45  car_host_40.hostB1.wlan[0].radio  receptionState:vector  ETV
attr interpolationmode  sample-hold
attr source  receptionStateChanged
attr title  "Radio reception state, vector"
vector 51  car_host_40.hostB2.wlan[0].radio  receptionState:vector  ETV
attr interpolationmode  sample-hold
attr source  receptionStateChanged
attr title  "Radio reception state, vector"
vector 57  car_host_40.hostB3.wlan[0].radio  receptionState:vector  ETV
attr interpolationmode  sample-hold
attr source  receptionStateChanged
attr title  "Radio reception state, vector"
vector 63  car_host_40.hostB4.wlan[0].radio  receptionState:vector  ETV
attr interpolationmode  sample-hold
attr source  receptionStateChanged
attr title  "Radio reception state, vector"
vector 69  car_host_40.hostC1.wlan[0].radio  receptionState:vector  ETV
attr interpolationmode  sample-hold
attr source  receptionStateChanged
attr title  "Radio reception state, vector"
vector 75  car_host_40.hostC2.wlan[0].radio  receptionState:vector  ETV
attr interpolationmode  sample-hold
attr source  receptionStateChanged
attr title  "Radio reception state, vector"
vector 81  car_host_40.hostC3.wlan[0].radio  receptionState:vector  ETV
attr interpolationmode  sample-hold
attr source  receptionStateChanged
attr title  "Radio reception state, vector"
vector 87  car_host_40.hostC4.wlan[0].radio  receptionState:vector  ETV
attr interpolationmode  sample-hold
attr source  receptionStateChanged
attr title  "Radio reception state, vector"
vector 93  car_host_40.hostC5.wlan[0].radio  receptionState:vector  ETV
attr interpolationmode  sample-hold
attr source  receptionStateChanged
attr title  "Radio reception state, vector"
vector 99  car_host_40.hostC6.wlan[0].radio  receptionState:vector  ETV
attr interpolationmode  sample-hold
attr source  receptionStateChanged
attr title  "Radio reception state, vector"
vector 105  car_host_40.hostB5.wlan[0].radio  receptionState:vector  ETV
attr interpolationmode  sample-hold
attr source  receptionStateChanged
attr title  "Radio reception state, vector"
vector 111  car_host_40.hostC7.wlan[0].radio  receptionState:vector  ETV
attr interpolationmode  sample-hold
attr source  receptionStateChanged
attr title  "Radio reception state, vector"
vector 117  car_host_40.hostB6.wlan[0].radio  receptionState:vector  ETV
attr interpolationmode  sample-hold
attr source  receptionStateChanged
attr title  "Radio reception state, vector"
vector 123  car_host_40.hostB7.wlan[0].radio  receptionState:vector  ETV
attr interpolationmode  sample-hold
attr source  receptionStateChanged
attr title  "Radio reception state, vector"
vector 129  car_host_40.hostC8.wlan[0].radio  receptionState:vector  ETV
attr interpolationmode  sample-hold
attr source  receptionStateChanged
attr title  "Radio reception state, vector"
vector 135  car_host_40.hostC9.wlan[0].radio  receptionState:vector  ETV
attr interpolationmode  sample-hold
attr source  receptionStateChanged
attr title  "Radio reception state, vector"
vector 141  car_host_40.hostB8.wlan[0].radio  receptionState:vector  ETV
attr interpolationmode  sample-hold
attr source  receptionStateChanged
attr title  "Radio reception state, vector"
vector 147  car_host_40.hostB9.wlan[0].radio  receptionState:vector  ETV
attr interpolationmode  sample-hold
attr source  receptionStateChanged
attr title  "Radio reception state, vector"
vector 153  car_host_40.hostC10.wlan[0].radio  receptionState:vector  ETV
attr interpolationmode  sample-hold
attr source  receptionStateChanged
attr title  "Radio reception state, vector"
vector 159  car_host_40.hostC11.wlan[0].radio  receptionState:vector  ETV
attr interpolationmode  sample-hold
attr source  receptionStateChanged
attr title  "Radio reception state, vector"
vector 165  car_host_40.hostB10.wlan[0].radio  receptionState:vector  ETV
attr interpolationmode  sample-hold
attr source  receptionStateChanged
attr title  "Radio reception state, vector"
vector 171  car_host_40.hostC12.wlan[0].radio  receptionState:vector  ETV
attr interpolationmode  sample-hold
attr source  receptionStateChanged
attr title  "Radio reception state, vector"
vector 177  car_host_40.hostB11.wlan[0].radio  receptionState:vector  ETV
attr interpolationmode  sample-hold
attr source  receptionStateChanged
attr title  "Radio reception state, vector"
vector 183  car_host_40.hostB12.wlan[0].radio  receptionState:vector  ETV
attr interpolationmode  sample-hold
attr source  receptionStateChanged
attr title  "Radio reception state, vector"
vector 189  car_host_40.hostC13.wlan[0].radio  receptionState:vector  ETV
attr interpolationmode  sample-hold
attr source  receptionStateChanged
attr title  "Radio reception state, vector"
vector 195  car_host_40.hostC14.wlan[0].radio  receptionState:vector  ETV
attr interpolationmode  sample-hold
attr source  receptionStateChanged
attr title  "Radio reception state, vector"
vector 201  car_host_40.hostB13.wlan[0].radio  receptionState:vector  ETV
attr interpolationmode  sample-hold
attr source  receptionStateChanged
attr title  "Radio reception state, vector"
vector 207  car_host_40.hostB14.wlan[0].radio  receptionState:vector  ETV
attr interpolationmode  sample-hold
attr source  receptionStateChanged
attr title  "Radio reception state, vector"
vector 213  car_host_40.hoste0.wlan[0].radio  receptionState:vector  ETV
attr interpolationmode  sample-hold
attr source  receptionStateChanged
attr title  "Radio reception state, vector"
vector 219  car_host_40.hoste1.wlan[0].radio  receptionState:vector  ETV
attr interpolationmode  sample-hold
attr source  receptionStateChanged
attr title  "Radio reception state, vector"
vector 225  car_host_40.hoste2.wlan[0].radio  receptionState:vector  ETV
attr interpolationmode  sample-hold
attr source  receptionStateChanged
attr title  "Radio reception state, vector"
vector 231  car_host_40.hoste3.wlan[0].radio  receptionState:vector  ETV
attr interpolationmode  sample-hold
attr source  receptionStateChanged
attr title  "Radio reception state, vector"
vector 237  car_host_40.hoste4.wlan[0].radio  receptionState:vector  ETV
attr interpolationmode  sample-hold
attr source  receptionStateChanged
attr title  "Radio reception state, vector"
vector 243  car_host_40.hoste5.wlan[0].radio  receptionState:vector  ETV
attr interpolationmode  sample-hold
attr source  receptionStateChanged
attr title  "Radio reception state, vector"
vector 249  car_host_40.hoste6.wlan[0].radio  receptionState:vector  ETV
attr interpolationmode  sample-hold
attr source  receptionStateChanged
attr title  "Radio reception state, vector"
vector 255  car_host_40.hoste7.wlan[0].radio  receptionState:vector  ETV
attr interpolationmode  sample-hold
attr source  receptionStateChanged
attr title  "Radio reception state, vector"
vector 261  car_host_40.hoste8.wlan[0].radio  receptionState:vector  ETV
attr interpolationmode  sample-hold
attr source  receptionStateChanged
attr title  "Radio reception state, vector"
vector 267  car_host_40.hoste9.wlan[0].radio  receptionState:vector  ETV
attr interpolationmode  sample-hold
attr source  receptionStateChanged
attr title  "Radio reception state, vector"
vector 1  car_host_40.hostA.udpApp[0]  sentPk:vector(packetBytes)  ETV
attr interpolationmode  none
attr source  sentPk
attr title  "packets sent, vector(packetBytes)"
vector 4  car_host_40.hostA.udp  sentPk:vector(packetBytes)  ETV
attr interpolationmode  none
attr source  sentPk
attr title  "packets sent, vector(packetBytes)"
vector 14  car_host_40.hostA.wlan[0].radio  transmissionState:vector  ETV
attr interpolationmode  sample-hold
attr source  transmissionStateChanged
attr title  "Radio transmission state, vector"
vector 202  car_host_40.hostB13.wlan[0].radio  transmissionState:vector  ETV
attr interpolationmode  sample-hold
attr source  transmissionStateChanged
attr title  "Radio transmission state, vector"
vector 184  car_host_40.hostB12.wlan[0].radio  transmissionState:vector  ETV
attr interpolationmode  sample-hold
attr source  transmissionStateChanged
attr title  "Radio transmission state, vector"
vector 46  car_host_40.hostB1.wlan[0].radio  transmissionState:vector  ETV
attr interpolationmode  sample-hold
attr source  transmissionStateChanged
attr title  "Radio transmission state, vector"
vector 148  car_host_40.hostB9.wlan[0].radio  transmissionState:vector  ETV
attr interpolationmode  sample-hold
attr source  transmissionStateChanged
attr title  "Radio transmission state, vector"
vector 64  car_host_40.hostB4.wlan[0].radio  transmissionState:vector  ETV
attr interpolationmode  sample-hold
attr source  transmissionStateChanged
attr title  "Radio transmission state, vector"
vector 124  car_host_40.hostB7.wlan[0].radio  transmissionState:vector  ETV
attr interpolationmode  sample-hold
attr source  transmissionStateChanged
attr title  "Radio transmission state, vector"
vector 118  car_host_40.hostB6.wlan[0].radio  transmissionState:vector  ETV
attr interpolationmode  sample-hold
attr source  transmissionStateChanged
attr title  "Radio transmission state, vector"
vector 58  car_host_40.hostB3.wlan[0].radio  transmissionState:vector  ETV
attr interpolationmode  sample-hold
attr source  transmissionStateChanged
attr title  "Radio transmission state, vector"
vector 142  car_host_40.hostB8.wlan[0].radio  transmissionState:vector  ETV
attr interpolationmode  sample-hold
attr source  transmissionStateChanged
attr title  "Radio transmission state, vector"
vector 136  car_host_40.hostC9.wlan[0].radio  transmissionState:vector  ETV
attr interpolationmode  sample-hold
attr source  transmissionStateChanged
attr title  "Radio transmission state, vector"
vector 106  car_host_40.hostB5.wlan[0].radio  transmissionState:vector  ETV
attr interpolationmode  sample-hold
attr source  transmissionStateChanged
attr title  "Radio transmission state, vector"
vector 196  car_host_40.hostC14.wlan[0].radio  transmissionState:vector  ETV
attr interpolationmode  sample-hold
attr source  transmissionStateChanged
attr title  "Radio transmission state, vector"
vector 166  car_host_40.hostB10.wlan[0].radio  transmissionState:vector  ETV
attr interpolationmode  sample-hold
attr source  transmissionStateChanged
attr title  "Radio transmission state, vector"
vector 34  car_host_40.hostB.wlan[0].radio  transmissionState:vector  ETV
attr interpolationmode  sample-hold
attr source  transmissionStateChanged
attr title  "Radio transmission state, vector"
vector 178  car_host_40.hostB11.wlan[0].radio  transmissionState:vector  ETV
attr interpolationmode  sample-hold
attr source  transmissionStateChanged
attr title  "Radio transmission state, vector"
vector 112  car_host_40.hostC7.wlan[0].radio  transmissionState:vector  ETV
attr interpolationmode  sample-hold
attr source  transmissionStateChanged
attr title  "Radio transmission state, vector"
vector 208  car_host_40.hostB14.wlan[0].radio  transmissionState:vector  ETV
attr interpolationmode  sample-hold
attr source  transmissionStateChanged
attr title  "Radio transmission state, vector"
vector 130  car_host_40.hostC8.wlan[0].radio  transmissionState:vector  ETV
attr interpolationmode  sample-hold
attr source  transmissionStateChanged
attr title  "Radio transmission state, vector"
vector 52  car_host_40.hostB2.wlan[0].radio  transmissionState:vector  ETV
attr interpolationmode  sample-hold
attr source  transmissionStateChanged
attr title  "Radio transmission state, vector"
vector 40  car_host_40.hostC.wlan[0].radio  transmissionState:vector  ETV
attr interpolationmode  sample-hold
attr source  transmissionStateChanged
attr title  "Radio transmission state, vector"
vector 88  car_host_40.hostC4.wlan[0].radio  transmissionState:vector  ETV
attr interpolationmode  sample-hold
attr source  transmissionStateChanged
attr title  "Radio transmission state, vector"
vector 76  car_host_40.hostC2.wlan[0].radio  transmissionState:vector  ETV
attr interpolationmode  sample-hold
attr source  transmissionStateChanged
attr title  "Radio transmission state, vector"
vector 172  car_host_40.hostC12.wlan[0].radio  transmissionState:vector  ETV
attr interpolationmode  sample-hold
attr source  transmissionStateChanged
attr title  "Radio transmission state, vector"
vector 82  car_host_40.hostC3.wlan[0].radio  transmissionState:vector  ETV
attr interpolationmode  sample-hold
attr source  transmissionStateChanged
attr title  "Radio transmission state, vector"
vector 238  car_host_40.hoste4.wlan[0].radio  transmissionState:vector  ETV
attr interpolationmode  sample-hold
attr source  transmissionStateChanged
attr title  "Radio transmission state, vector"
vector 160  car_host_40.hostC11.wlan[0].radio  transmissionState:vector  ETV
attr interpolationmode  sample-hold
attr source  transmissionStateChanged
attr title  "Radio transmission state, vector"
vector 28  car_host_40.hostD.wlan[0].radio  transmissionState:vector  ETV
attr interpolationmode  sample-hold
attr source  transmissionStateChanged
attr title  "Radio transmission state, vector"
vector 244  car_host_40.hoste5.wlan[0].radio  transmissionState:vector  ETV
attr interpolationmode  sample-hold
attr source  transmissionStateChanged
attr title  "Radio transmission state, vector"
vector 154  car_host_40.hostC10.wlan[0].radio  transmissionState:vector  ETV
attr interpolationmode  sample-hold
attr source  transmissionStateChanged
attr title  "Radio transmission state, vector"
vector 70  car_host_40.hostC1.wlan[0].radio  transmissionState:vector  ETV
attr interpolationmode  sample-hold
attr source  transmissionStateChanged
attr title  "Radio transmission state, vector"
vector 190  car_host_40.hostC13.wlan[0].radio  transmissionState:vector  ETV
attr interpolationmode  sample-hold
attr source  transmissionStateChanged
attr title  "Radio transmission state, vector"
vector 232  car_host_40.hoste3.wlan[0].radio  transmissionState:vector  ETV
attr interpolationmode  sample-hold
attr source  transmissionStateChanged
attr title  "Radio transmission state, vector"
vector 100  car_host_40.hostC6.wlan[0].radio  transmissionState:vector  ETV
attr interpolationmode  sample-hold
attr source  transmissionStateChanged
attr title  "Radio transmission state, vector"
vector 226  car_host_40.hoste2.wlan[0].radio  transmissionState:vector  ETV
attr interpolationmode  sample-hold
attr source  transmissionStateChanged
attr title  "Radio transmission state, vector"
vector 262  car_host_40.hoste8.wlan[0].radio  transmissionState:vector  ETV
attr interpolationmode  sample-hold
attr source  transmissionStateChanged
attr title  "Radio transmission state, vector"
vector 94  car_host_40.hostC5.wlan[0].radio  transmissionState:vector  ETV
attr interpolationmode  sample-hold
attr source  transmissionStateChanged
attr title  "Radio transmission state, vector"
vector 256  car_host_40.hoste7.wlan[0].radio  transmissionState:vector  ETV
attr interpolationmode  sample-hold
attr source  transmissionStateChanged
attr title  "Radio transmission state, vector"
vector 268  car_host_40.hoste9.wlan[0].radio  transmissionState:vector  ETV
attr interpolationmode  sample-hold
attr source  transmissionStateChanged
attr title  "Radio transmission state, vector"
vector 214  car_host_40.hoste0.wlan[0].radio  transmissionState:vector  ETV
attr interpolationmode  sample-hold
attr source  transmissionStateChanged
attr title  "Radio transmission state, vector"
vector 220  car_host_40.hoste1.wlan[0].radio  transmissionState:vector  ETV
attr interpolationmode  sample-hold
attr source  transmissionStateChanged
attr title  "Radio transmission state, vector"
vector 250  car_host_40.hoste6.wlan[0].radio  transmissionState:vector  ETV
attr interpolationmode  sample-hold
attr source  transmissionStateChanged
attr title  "Radio transmission state, vector"
vector 19  car_host_40.hostD.udp  rcvdPk:vector(packetBytes)  ETV
attr interpolationmode  none
attr source  rcvdPk
attr title  "packets received, vector(packetBytes)"
vector 20  car_host_40.hostD.udp  passedUpPk:vector(count)  ETV
attr interpolationmode  none
attr title  "packets passed up, vector(count)"
vector 15  car_host_40.hostD.udpApp[0]  rcvdPk:vector(packetBytes)  ETV
attr interpolationmode  none
attr source  rcvdPk
attr title  "packets received, vector(packetBytes)"
vector 16  car_host_40.hostD.udpApp[0]  endToEndDelay:vector  ETV
attr interpolationmode  none
attr source  messageAge(rcvdPk)
attr title  "end-to-end delay, vector"
attr unit  s
vector 17  car_host_40.hostD.udpApp[0]  rcvdPkSeqNo:vector  ETV
attr interpolationmode  none
attr source  appPkSeqNo(rcvdPk)
attr title  "received packet sequence number, vector"
1	132	0.1	1000
1	1083	0.2	1000
1	1086	0.3	1000
1	1089	0.4	1000
1	3821	0.5	1000
1	3824	0.6	1000
1	3827	0.7	1000
1	3830	0.8	1000
1	3834	0.9	1000
1	7784	1	1000
1	7787	1.1	1000
1	7790	1.2	1000
1	7793	1.3	1000
1	7796	1.4	1000
1	7799	1.5	1000
1	12682	1.6	1000
1	12685	1.7	1000
1	12688	1.8	1000
1	12691	1.9	1000
1	12736	2	1000
1	12739	2.1	1000
1	12743	2.2	1000
1	12746	2.3	1000
1	12749	2.4	1000
1	12803	2.5	1000
1	12806	2.6	1000
1	12809	2.7	1000
1	12812	2.8	1000
1	12815	2.9	1000
1	12948	3	1000
1	12951	3.1	1000
1	12954	3.2	1000
1	12957	3.3	1000
1	12960	3.4	1000
1	12963	3.5	1000
1	13294	3.6	1000
1	13297	3.7	1000
1	13300	3.8	1000
1	13303	3.9	1000
1	13348	4	1000
1	13351	4.1	1000
1	13354	4.2	1000
1	13357	4.3	1000
1	13360	4.4	1000
1	13364	4.5	1000
1	19593	4.6	1000
1	21006	4.7	1000
1	22644	4.8	1000
1	24032	4.9	1000
1	24426	5	1000
1	25044	5.1	1000
1	25662	5.2	1000
1	26280	5.3	1000
1	26898	5.4	1000
1	27406	5.5	1000
1	27600	5.6	1000
1	27794	5.7	1000
1	28302	5.8	1000
1	28920	5.9	1000
1	29156	6	1000
1	29774	6.1	1000
1	29968	6.2	1000
1	30586	6.3	1000
1	31204	6.4	1000
1	31398	6.5	1000
1	31946	6.6	1000
1	32140	6.7	1000
1	32758	6.8	1000
1	32952	6.9	1000
1	33612	7	1000
1	34230	7.1	1000
1	34424	7.2	1000
1	34932	7.3	1000
1	35126	7.4	1000
1	35744	7.5	1000
1	36252	7.6	1000
1	36446	7.7	1000
1	37064	7.8	1000
1	37258	7.9	1000
1	37494	8	1000
1	37688	8.1	1000
1	38306	8.2	1000
1	38500	8.3	1000
1	39122	8.4	1000
1	39741	8.5	1000
1	40360	8.6	1000
1	40554	8.7	1000
1	41062	8.8	1000
1	41680	8.9	1000
1	42020	9	1000
1	42214	9.1	1000
1	42832	9.2	1000
1	43450	9.3	1000
1	43644	9.4	1000
1	44152	9.5	1000
1	44346	9.6	1000
1	44968	9.7	1000
1	45178	9.8	1000
1	45805	9.9	1000
1	46042	10	1000
1	46666	10.1	1000
1	46964	10.2	1000
1	47582	10.3	1000
1	47781	10.4	1000
1	48289	10.5	1000
1	48908	10.6	1000
1	49102	10.7	1000
1	49720	10.8	1000
1	50338	10.9	1000
1	50998	11	1000
1	51506	11.1	1000
1	52124	11.2	1000
1	52742	11.3	1000
1	52936	11.4	1000
1	53554	11.5	1000
1	54172	11.6	1000
1	54680	11.7	1000
1	55298	11.8	1000
1	55916	11.9	1000
1	56573	12	1000
1	57191	12.1	1000
1	57809	12.2	1000
1	58432	12.3	1000
1	58626	12.4	1000
1	59172	12.5	1000
1	59366	12.6	1000
1	59874	12.7	1000
1	60492	12.8	1000
1	61110	12.9	1000
1	61389	13	1000
1	62007	13.1	1000
1	62625	13.2	1000
1	63243	13.3	1000
1	63861	13.4	1000
1	64479	13.5	1000
1	65066	13.6	1000
1	65684	13.7	1000
1	66192	13.8	1000
1	66386	13.9	1000
1	67046	14	1000
1	67664	14.1	1000
1	67962	14.2	1000
1	68580	14.3	1000
1	68774	14.4	1000
1	69392	14.5	1000
1	70010	14.6	1000
1	70628	14.7	1000
1	70822	14.8	1000
1	71016	14.9	1000
1	71676	15	1000
1	72294	15.1	1000
1	72912	15.2	1000
1	73530	15.3	1000
1	74148	15.4	1000
1	74768	15.5	1000
1	75390	15.6	1000
1	75584	15.7	1000
1	76202	15.8	1000
1	76820	15.9	1000
1	77480	16	1000
1	78098	16.1	1000
1	78396	16.2	1000
1	79014	16.3	1000
1	79522	16.4	1000
1	80140	16.5	1000
1	80999	16.6	1000
1	81297	16.7	1000
1	81915	16.8	1000
1	82533	16.9	1000
1	83193	17	1000
1	83811	17.1	1000
1	84429	17.2	1000
1	85047	17.3	1000
1	85665	17.4	1000
1	86283	17.5	1000
1	86477	17.6	1000
1	86671	17.7	1000
1	87289	17.8	1000
1	87483	17.9	1000
1	87719	18	1000
1	87913	18.1	1000
1	88531	18.2	1000
1	89039	18.3	1000
1	89657	18.4	1000
1	90280	18.5	1000
1	90475	18.6	1000
1	90669	18.7	1000
1	90863	18.8	1000
1	91481	18.9	1000
1	91717	19	1000
1	92335	19.1	1000
1	92529	19.2	1000
1	93147	19.3	1000
1	93765	19.4	1000
1	94063	19.5	1000
1	94681	19.6	1000
1	94983	19.7	1000
1	95617	19.8	1000
1	96244	19.9	1000
1	96905	20	1000
1	97529	20.1	1000
1	98147	20.2	1000
1	98655	20.3	1000
1	98854	20.4	1000
1	99472	20.5	1000
1	100091	20.6	1000
1	100389	20.7	1000
1	100583	20.8	1000
1	100777	20.9	1000
1	101327	21	1000
1	101625	21.1	1000
1	102133	21.2	1000
1	102327	21.3	1000
1	102521	21.4	1000
1	103139	21.5	1000
1	103333	21.6	1000
1	103951	21.7	1000
1	104145	21.8	1000
1	104653	21.9	1000
1	105203	22	1000
1	105821	22.1	1000
1	106440	22.2	1000
1	106638	22.3	1000
1	106832	22.4	1000
1	107027	22.5	1000
1	107645	22.6	1000
1	108153	22.7	1000
1	108451	22.8	1000
1	109069	22.9	1000
1	109729	23	1000
1	110347	23.1	1000
1	110965	23.2	1000
1	111583	23.3	1000
1	112201	23.4	1000
1	112819	23.5	1000
1	113013	23.6	1000
1	113631	23.7	1000
1	114249	23.8	1000
1	114867	23.9	1000
1	115527	24	1000
1	115721	24.1	1000
1	115920	24.2	1000
1	116114	24.3	1000
1	116623	24.4	1000
1	117241	24.5	1000
1	117435	24.6	1000
1	118053	24.7	1000
1	118247	24.8	1000
1	118755	24.9	1000
1	118991	25	1000
1	119609	25.1	1000
1	120227	25.2	1000
1	120421	25.3	1000
1	121036	25.4	1000
1	121230	25.5	1000
1	121848	25.6	1000
1	122042	25.7	1000
1	122550	25.8	1000
1	123168	25.9	1000
1	123832	26	1000
1	124451	26.1	1000
1	124645	26.2	1000
1	125264	26.3	1000
1	125882	26.4	1000
1	126076	26.5	1000
1	126694	26.6	1000
1	127312	26.7	1000
1	127930	26.8	1000
1	128548	26.9	1000
1	128784	27	1000
1	129402	27.1	1000
1	130020	27.2	1000
1	130214	27.3	1000
1	130832	27.4	1000
1	131450	27.5	1000
1	131748	27.6	1000
1	132366	27.7	1000
1	132560	27.8	1000
1	133182	27.9	1000
1	133843	28	1000
1	134037	28.1	1000
1	134232	28.2	1000
1	134530	28.3	1000
1	134828	28.4	1000
1	135446	28.5	1000
1	135640	28.6	1000
1	135834	28.7	1000
1	136449	28.8	1000
1	137067	28.9	1000
1	137727	29	1000
1	138345	29.1	1000
1	138853	29.2	1000
1	139471	29.3	1000
1	139979	29.4	1000
1	140173	29.5	1000
1	140791	29.6	1000
1	140989	29.7	1000
1	141183	29.8	1000
1	141692	29.9	1000
1	142352	30	1000
1	142860	30.1	1000
1	143159	30.2	1000
1	143353	30.3	1000
1	143971	30.4	1000
1	144165	30.5	1000
1	144783	30.6	1000
1	144977	30.7	1000
1	145595	30.8	1000
1	146213	30.9	1000
1	146449	31	1000
1	146957	31.1	1000
1	147572	31.2	1000
1	148080	31.3	1000
1	148588	31.4	1000
1	149206	31.5	1000
1	149828	31.6	1000
1	150446	31.7	1000
1	151065	31.8	1000
1	151683	31.9	1000
1	152343	32	1000
1	152962	32.1	1000
1	153580	32.2	1000
1	154198	32.3	1000
1	154392	32.4	1000
1	154900	32.5	1000
1	155198	32.6	1000
1	155816	32.7	1000
1	156324	32.8	1000
1	156942	32.9	1000
1	157178	33	1000
1	157372	33.1	1000
1	157990	33.2	1000
1	158608	33.3	1000
1	159226	33.4	1000
1	159738	33.5	1000
1	160356	33.6	1000
1	160865	33.7	1000
1	161483	33.8	1000
1	162101	33.9	1000
1	162337	34	1000
1	162956	34.1	1000
1	163574	34.2	1000
1	164192	34.3	1000
1	164810	34.4	1000
1	165108	34.5	1000
1	165726	34.6	1000
1	166344	34.7	1000
1	166852	34.8	1000
1	167046	34.9	1000
1	167596	35	1000
1	168214	35.1	1000
1	168408	35.2	1000
1	169026	35.3	1000
1	169648	35.4	1000
1	170266	35.5	1000
1	170885	35.6	1000
1	171503	35.7	1000
1	172121	35.8	1000
1	172315	35.9	1000
1	172552	36	1000
1	172850	36.1	1000
1	173468	36.2	1000
1	173662	36.3	1000
1	173856	36.4	1000
1	174474	36.5	1000
1	175092	36.6	1000
1	175710	36.7	1000
1	175904	36.8	1000
1	176098	36.9	1000
1	176758	37	1000
1	176952	37.1	1000
1	177146	37.2	1000
1	177340	37.3	1000
1	177538	37.4	1000
1	178157	37.5	1000
1	178775	37.6	1000
1	179283	37.7	1000
1	179901	37.8	1000
1	180095	37.9	1000
1	180756	38	1000
1	180950	38.1	1000
1	181568	38.2	1000
1	182186	38.3	1000
1	182484	38.4	1000
1	183099	38.5	1000
1	183717	38.6	1000
1	183911	38.7	1000
1	184529	38.8	1000
1	185147	38.9	1000
1	185811	39	1000
1	186005	39.1	1000
1	186513	39.2	1000
1	187131	39.3	1000
1	187326	39.4	1000
1	187520	39.5	1000
1	188138	39.6	1000
1	188332	39.7	1000
1	188840	39.8	1000
1	189034	39.9	1000
1	189695	40	1000
1	189889	40.1	1000
1	190397	40.2	1000
1	190591	40.3	1000
1	191209	40.4	1000
1	191827	40.5	1000
1	192445	40.6	1000
1	193063	40.7	1000
1	193257	40.8	1000
1	193878	40.9	1000
1	194539	41	1000
1	194733	41.1	1000
1	195351	41.2	1000
1	195546	41.3	1000
1	196054	41.4	1000
1	196248	41.5	1000
1	196866	41.6	1000
1	197060	41.7	1000
1	197254	41.8	1000
1	197873	41.9	1000
1	198423	42	1000
1	199041	42.1	1000
1	199235	42.2	1000
1	199429	42.3	1000
1	200047	42.4	1000
1	200345	42.5	1000
1	200744	42.6	1000
1	200938	42.7	1000
1	201556	42.8	1000
1	201753	42.9	1000
1	201990	43	1000
1	202184	43.1	1000
1	202379	43.2	1000
1	202573	43.3	1000
1	202767	43.4	1000
1	202961	43.5	1000
1	203579	43.6	1000
1	203877	43.7	1000
1	204072	43.8	1000
1	204266	43.9	1000
1	204926	44	1000
1	205120	44.1	1000
1	205738	44.2	1000
1	206356	44.3	1000
1	206971	44.4	1000
1	207165	44.5	1000
1	207783	44.6	1000
1	208081	44.7	1000
1	208703	44.8	1000
1	209318	44.9	1000
1	209978	45	1000
1	210597	45.1	1000
1	210791	45.2	1000
1	211409	45.3	1000
1	211707	45.4	1000
1	211901	45.5	1000
1	212409	45.6	1000
1	212603	45.7	1000
1	212902	45.8	1000
1	213520	45.9	1000
1	213756	46	1000
1	213950	46.1	1000
1	214568	46.2	1000
1	215186	46.3	1000
1	215380	46.4	1000
1	215574	46.5	1000
1	216192	46.6	1000
1	216810	46.7	1000
1	217322	46.8	1000
1	217830	46.9	1000
1	218067	47	1000
1	218685	47.1	1000
1	219303	47.2	1000
1	219811	47.3	1000
1	220005	47.4	1000
1	220623	47.5	1000
1	221241	47.6	1000
1	221860	47.7	1000
1	222054	47.8	1000
1	222672	47.9	1000
1	223332	48	1000
1	223526	48.1	1000
1	224144	48.2	1000
1	224762	48.3	1000
1	225380	48.4	1000
1	225678	48.5	1000
1	226293	48.6	1000
1	226490	48.7	1000
1	227109	48.8	1000
1	227618	48.9	1000
1	227958	49	1000
1	228576	49.1	1000
1	228770	49.2	1000
1	228964	49.3	1000
1	229582	49.4	1000
1	230200	49.5	1000
1	230394	49.6	1000
1	230903	49.7	1000
1	231521	49.8	1000
1	231715	49.9	1000
1	232375	50	1000
1	232993	50.1	1000
1	233501	50.2	1000
1	234119	50.3	1000
1	234737	50.4	1000
1	235355	50.5	1000
1	235977	50.6	1000
1	236171	50.7	1000
1	236790	50.8	1000
1	236984	50.9	1000
1	237644	51	1000
1	238262	51.1	1000
1	238456	51.2	1000
1	239074	51.3	1000
1	239582	51.4	1000
1	239880	51.5	1000
1	240498	51.6	1000
1	241007	51.7	1000
1	241625	51.8	1000
1	241923	51.9	1000
1	242583	52	1000
1	242881	52.1	1000
1	243499	52.2	1000
1	244117	52.3	1000
1	244311	52.4	1000
1	244932	52.5	1000
1	245127	52.6	1000
1	245746	52.7	1000
1	246364	52.8	1000
1	246982	52.9	1000
1	247642	53	1000
1	248260	53.1	1000
1	248768	53.2	1000
1	249386	53.3	1000
1	249894	53.4	1000
1	250512	53.5	1000
1	251131	53.6	1000
1	251639	53.7	1000
1	251833	53.8	1000
1	252341	53.9	1000
1	253001	54	1000
1	253195	54.1	1000
1	253813	54.2	1000
1	254008	54.3	1000
1	254202	54.4	1000
1	254823	54.5	1000
1	255442	54.6	1000
1	255636	54.7	1000
1	256254	54.8	1000
1	256872	54.9	1000
1	257108	55	1000
1	257726	55.1	1000
1	258344	55.2	1000
1	258962	55.3	1000
1	259580	55.4	1000
1	259774	55.5	1000
1	259969	55.6	1000
1	260163	55.7	1000
1	260781	55.8	1000
1	260975	55.9	1000
1	261635	56	1000
1	261829	56.1	1000
1	262130	56.2	1000
1	262324	56.3	1000
1	262518	56.4	1000
1	262714	56.5	1000
1	263332	56.6	1000
1	263950	56.7	1000
1	264568	56.8	1000
1	265186	56.9	1000
1	265846	57	1000
1	266040	57.1	1000
1	266234	57.2	1000
1	266428	57.3	1000
1	266622	57.4	1000
1	266817	57.5	1000
1	267435	57.6	1000
1	268053	57.7	1000
1	268671	57.8	1000
1	269289	57.9	1000
1	269528	58	1000
1	270146	58.1	1000
1	270655	58.2	1000
1	271273	58.3	1000
1	271892	58.4	1000
1	272510	58.5	1000
1	273128	58.6	1000
1	273746	58.7	1000
1	273940	58.8	1000
1	274558	58.9	1000
1	274794	59	1000
1	275302	59.1	1000
1	275920	59.2	1000
1	276538	59.3	1000
1	277156	59.4	1000
1	277351	59.5	1000
1	277969	59.6	1000
1	278587	59.7	1000
1	279205	59.8	1000
1	279402	59.9	1000
1	280062	60	1000
4	134	0.1	1008
4	1084	0.2	1008
4	1087	0.3	1008
4	1090	0.4	1008
4	3822	0.5	1008
4	3825	0.6	1008
4	3828	0.7	1008
4	3831	0.8	1008
4	3835	0.9	1008
4	7785	1	1008
4	7788	1.1	1008
4	7791	1.2	1008
4	7794	1.3	1008
4	7797	1.4	1008
4	7800	1.5	1008
4	12683	1.6	1008
4	12686	1.7	1008
4	12689	1.8	1008
4	12692	1.9	1008
4	12737	2	1008
4	12740	2.1	1008
4	12744	2.2	1008
4	12747	2.3	1008
4	12750	2.4	1008
4	12804	2.5	1008
4	12807	2.6	1008
4	12810	2.7	1008
4	12813	2.8	1008
4	12816	2.9	1008
4	12949	3	1008
4	12952	3.1	1008
4	12955	3.2	1008
4	12958	3.3	1008
4	12961	3.4	1008
4	12964	3.5	1008
4	13295	3.6	1008
4	13298	3.7	1008
4	13301	3.8	1008
4	13304	3.9	1008
4	13349	4	1008
4	13352	4.1	1008
4	13355	4.2	1008
4	13358	4.3	1008
4	13361	4.4	1008
4	13365	4.5	1008
4	19594	4.6	1008
4	21007	4.7	1008
4	22645	4.8	1008
4	24033	4.9	1008
4	24427	5	1008
4	25045	5.1	1008
4	25663	5.2	1008
4	26281	5.3	1008
4	26899	5.4	1008
4	27407	5.5	1008
4	27601	5.6	1008
4	27795	5.7	1008
4	28303	5.8	1008
4	28921	5.9	1008
4	29157	6	1008
4	29775	6.1	1008
4	29969	6.2	1008
4	30587	6.3	1008
4	31205	6.4	1008
4	31399	6.5	1008
4	31947	6.6	1008
4	32141	6.7	1008
4	32759	6.8	1008
4	32953	6.9	1008
4	33613	7	1008
4	34231	7.1	1008
4	34425	7.2	1008
4	34933	7.3	1008
4	35127	7.4	1008
4	35745	7.5	1008
4	36253	7.6	1008
4	36447	7.7	1008
4	37065	7.8	1008
4	37259	7.9	1008
4	37495	8	1008
4	37689	8.1	1008
4	38307	8.2	1008
4	38501	8.3	1008
4	39123	8.4	1008
4	39742	8.5	1008
4	40361	8.6	1008
4	40555	8.7	1008
4	41063	8.8	1008
4	41681	8.9	1008
4	42021	9	1008
4	42215	9.1	1008
4	42833	9.2	1008
4	43451	9.3	1008
4	43645	9.4	1008
4	44153	9.5	1008
4	44347	9.6	1008
4	44969	9.7	1008
4	45179	9.8	1008
4	45806	9.9	1008
4	46043	10	1008
4	46667	10.1	1008
4	46965	10.2	1008
4	47583	10.3	1008
4	47782	10.4	1008
4	48290	10.5	1008
4	48909	10.6	1008
4	49103	10.7	1008
4	49721	10.8	1008
4	50339	10.9	1008
4	50999	11	1008
4	51507	11.1	1008
4	52125	11.2	1008
4	52743	11.3	1008
4	52937	11.4	1008
4	53555	11.5	1008
4	54173	11.6	1008
4	54681	11.7	1008
4	55299	11.8	1008
4	55917	11.9	1008
4	56574	12	1008
4	57192	12.1	1008
4	57810	12.2	1008
4	58433	12.3	1008
4	58627	12.4	1008
4	59173	12.5	1008
4	59367	12.6	1008
4	59875	12.7	1008
4	60493	12.8	1008
4	61111	12.9	1008
4	61390	13	1008
4	62008	13.1	1008
4	62626	13.2	1008
4	63244	13.3	1008
4	63862	13.4	1008
4	64480	13.5	1008
4	65067	13.6	1008
4	65685	13.7	1008
4	66193	13.8	1008
4	66387	13.9	1008
4	67047	14	1008
4	67665	14.1	1008
4	67963	14.2	1008
4	68581	14.3	1008
4	68775	14.4	1008
4	69393	14.5	1008
4	70011	14.6	1008
4	70629	14.7	1008
4	70823	14.8	1008
4	71017	14.9	1008
4	71677	15	1008
4	72295	15.1	1008
4	72913	15.2	1008
4	73531	15.3	1008
4	74149	15.4	1008
4	74769	15.5	1008
4	75391	15.6	1008
4	75585	15.7	1008
4	76203	15.8	1008
4	76821	15.9	1008
4	77481	16	1008
4	78099	16.1	1008
4	78397	16.2	1008
4	79015	16.3	1008
4	79523	16.4	1008
4	80141	16.5	1008
4	81000	16.6	1008
4	81298	16.7	1008
4	81916	16.8	1008
4	82534	16.9	1008
4	83194	17	1008
4	83812	17.1	1008
4	84430	17.2	1008
4	85048	17.3	1008
4	85666	17.4	1008
4	86284	17.5	1008
4	86478	17.6	1008
4	86672	17.7	1008
4	87290	17.8	1008
4	87484	17.9	1008
4	87720	18	1008
4	87914	18.1	1008
4	88532	18.2	1008
4	89040	18.3	1008
4	89658	18.4	1008
4	90281	18.5	1008
4	90476	18.6	1008
4	90670	18.7	1008
4	90864	18.8	1008
4	91482	18.9	1008
4	91718	19	1008
4	92336	19.1	1008
4	92530	19.2	1008
4	93148	19.3	1008
4	93766	19.4	1008
4	94064	19.5	1008
4	94682	19.6	1008
4	94984	19.7	1008
4	95618	19.8	1008
4	96245	19.9	1008
4	96906	20	1008
4	97530	20.1	1008
4	98148	20.2	1008
4	98656	20.3	1008
4	98855	20.4	1008
4	99473	20.5	1008
4	100092	20.6	1008
4	100390	20.7	1008
4	100584	20.8	1008
4	100778	20.9	1008
4	101328	21	1008
4	101626	21.1	1008
4	102134	21.2	1008
4	102328	21.3	1008
4	102522	21.4	1008
4	103140	21.5	1008
4	103334	21.6	1008
4	103952	21.7	1008
4	104146	21.8	1008
4	104654	21.9	1008
4	105204	22	1008
4	105822	22.1	1008
4	106441	22.2	1008
4	106639	22.3	1008
4	106833	22.4	1008
4	107028	22.5	1008
4	107646	22.6	1008
4	108154	22.7	1008
4	108452	22.8	1008
4	109070	22.9	1008
4	109730	23	1008
4	110348	23.1	1008
4	110966	23.2	1008
4	111584	23.3	1008
4	112202	23.4	1008
4	112820	23.5	1008
4	113014	23.6	1008
4	113632	23.7	1008
4	114250	23.8	1008
4	114868	23.9	1008
4	115528	24	1008
4	115722	24.1	1008
4	115921	24.2	1008
4	116115	24.3	1008
4	116624	24.4	1008
4	117242	24.5	1008
4	117436	24.6	1008
4	118054	24.7	1008
4	118248	24.8	1008
4	118756	24.9	1008
4	118992	25	1008
4	119610	25.1	1008
4	120228	25.2	1008
4	120422	25.3	1008
4	121037	25.4	1008
4	121231	25.5	1008
4	121849	25.6	1008
4	122043	25.7	1008
4	122551	25.8	1008
4	123169	25.9	1008
4	123833	26	1008
4	124452	26.1	1008
4	124646	26.2	1008
4	125265	26.3	1008
4	125883	26.4	1008
4	126077	26.5	1008
4	126695	26.6	1008
4	127313	26.7	1008
4	127931	26.8	1008
4	128549	26.9	1008
4	128785	27	1008
4	129403	27.1	1008
4	130021	27.2	1008
4	130215	27.3	1008
4	130833	27.4	1008
4	131451	27.5	1008
4	131749	27.6	1008
4	132367	27.7	1008
4	132561	27.8	1008
4	133183	27.9	1008
4	133844	28	1008
4	134038	28.1	1008
4	134233	28.2	1008
4	134531	28.3	1008
4	134829	28.4	1008
4	135447	28.5	1008
4	135641	28.6	1008
4	135835	28.7	1008
4	136450	28.8	1008
4	137068	28.9	1008
4	137728	29	1008
4	138346	29.1	1008
4	138854	29.2	1008
4	139472	29.3	1008
4	139980	29.4	1008
4	140174	29.5	1008
4	140792	29.6	1008
4	140990	29.7	1008
4	141184	29.8	1008
4	141693	29.9	1008
4	142353	30	1008
4	142861	30.1	1008
4	143160	30.2	1008
4	143354	30.3	1008
4	143972	30.4	1008
4	144166	30.5	1008
4	144784	30.6	1008
4	144978	30.7	1008
4	145596	30.8	1008
4	146214	30.9	1008
4	146450	31	1008
4	146958	31.1	1008
4	147573	31.2	1008
4	148081	31.3	1008
4	148589	31.4	1008
4	149207	31.5	1008
4	149829	31.6	1008
4	150447	31.7	1008
4	151066	31.8	1008
4	151684	31.9	1008
4	152344	32	1008
4	152963	32.1	1008
4	153581	32.2	1008
4	154199	32.3	1008
4	154393	32.4	1008
4	154901	32.5	1008
4	155199	32.6	1008
4	155817	32.7	1008
4	156325	32.8	1008
4	156943	32.9	1008
4	157179	33	1008
4	157373	33.1	1008
4	157991	33.2	1008
4	158609	33.3	1008
4	159227	33.4	1008
4	159739	33.5	1008
4	160357	33.6	1008
4	160866	33.7	1008
4	161484	33.8	1008
4	162102	33.9	1008
4	162338	34	1008
4	162957	34.1	1008
4	163575	34.2	1008
4	164193	34.3	1008
4	164811	34.4	1008
4	165109	34.5	1008
4	165727	34.6	1008
4	166345	34.7	1008
4	166853	34.8	1008
4	167047	34.9	1008
4	167597	35	1008
4	168215	35.1	1008
4	168409	35.2	1008
4	169027	35.3	1008
4	169649	35.4	1008
4	170267	35.5	1008
4	170886	35.6	1008
4	171504	35.7	1008
4	172122	35.8	1008
4	172316	35.9	1008
4	172553	36	1008
4	172851	36.1	1008
4	173469	36.2	1008
4	173663	36.3	1008
4	173857	36.4	1008
4	174475	36.5	1008
4	175093	36.6	1008
4	175711	36.7	1008
4	175905	36.8	1008
4	176099	36.9	1008
4	176759	37	1008
4	176953	37.1	1008
4	177147	37.2	1008
4	177341	37.3	1008
4	177539	37.4	1008
4	178158	37.5	1008
4	178776	37.6	1008
4	179284	37.7	1008
4	179902	37.8	1008
4	180096	37.9	1008
4	180757	38	1008
4	180951	38.1	1008
4	181569	38.2	1008
4	182187	38.3	1008
4	182485	38.4	1008
4	183100	38.5	1008
4	183718	38.6	1008
4	183912	38.7	1008
4	184530	38.8	1008
4	185148	38.9	1008
4	185812	39	1008
4	186006	39.1	1008
4	186514	39.2	1008
4	187132	39.3	1008
4	187327	39.4	1008
4	187521	39.5	1008
4	188139	39.6	1008
4	188333	39.7	1008
4	188841	39.8	1008
4	189035	39.9	1008
4	189696	40	1008
4	189890	40.1	1008
4	190398	40.2	1008
4	190592	40.3	1008
4	191210	40.4	1008
4	191828	40.5	1008
4	192446	40.6	1008
4	193064	40.7	1008
4	193258	40.8	1008
4	193879	40.9	1008
4	194540	41	1008
4	194734	41.1	1008
4	195352	41.2	1008
4	195547	41.3	1008
4	196055	41.4	1008
4	196249	41.5	1008
4	196867	41.6	1008
4	197061	41.7	1008
4	197255	41.8	1008
4	197874	41.9	1008
4	198424	42	1008
4	199042	42.1	1008
4	199236	42.2	1008
4	199430	42.3	1008
4	200048	42.4	1008
4	200346	42.5	1008
4	200745	42.6	1008
4	200939	42.7	1008
4	201557	42.8	1008
4	201754	42.9	1008
4	201991	43	1008
4	202185	43.1	1008
4	202380	43.2	1008
4	202574	43.3	1008
4	202768	43.4	1008
4	202962	43.5	1008
4	203580	43.6	1008
4	203878	43.7	1008
4	204073	43.8	1008
4	204267	43.9	1008
4	204927	44	1008
4	205121	44.1	1008
4	205739	44.2	1008
4	206357	44.3	1008
4	206972	44.4	1008
4	207166	44.5	1008
4	207784	44.6	1008
4	208082	44.7	1008
4	208704	44.8	1008
4	209319	44.9	1008
4	209979	45	1008
4	210598	45.1	1008
4	210792	45.2	1008
4	211410	45.3	1008
4	211708	45.4	1008
4	211902	45.5	1008
4	212410	45.6	1008
4	212604	45.7	1008
4	212903	45.8	1008
4	213521	45.9	1008
4	213757	46	1008
4	213951	46.1	1008
4	214569	46.2	1008
4	215187	46.3	1008
4	215381	46.4	1008
4	215575	46.5	1008
4	216193	46.6	1008
4	216811	46.7	1008
4	217323	46.8	1008
4	217831	46.9	1008
4	218068	47	1008
4	218686	47.1	1008
4	219304	47.2	1008
4	219812	47.3	1008
4	220006	47.4	1008
4	220624	47.5	1008
4	221242	47.6	1008
4	221861	47.7	1008
4	222055	47.8	1008
4	222673	47.9	1008
4	223333	48	1008
4	223527	48.1	1008
4	224145	48.2	1008
4	224763	48.3	1008
4	225381	48.4	1008
4	225679	48.5	1008
4	226294	48.6	1008
4	226491	48.7	1008
4	227110	48.8	1008
4	227619	48.9	1008
4	227959	49	1008
4	228577	49.1	1008
4	228771	49.2	1008
4	228965	49.3	1008
4	229583	49.4	1008
4	230201	49.5	1008
4	230395	49.6	1008
4	230904	49.7	1008
4	231522	49.8	1008
4	231716	49.9	1008
4	232376	50	1008
4	232994	50.1	1008
4	233502	50.2	1008
4	234120	50.3	1008
4	234738	50.4	1008
4	235356	50.5	1008
4	235978	50.6	1008
4	236172	50.7	1008
4	236791	50.8	1008
4	236985	50.9	1008
4	237645	51	1008
4	238263	51.1	1008
4	238457	51.2	1008
4	239075	51.3	1008
4	239583	51.4	1008
4	239881	51.5	1008
4	240499	51.6	1008
4	241008	51.7	1008
4	241626	51.8	1008
4	241924	51.9	1008
4	242584	52	1008
4	242882	52.1	1008
4	243500	52.2	1008
4	244118	52.3	1008
4	244312	52.4	1008
4	244933	52.5	1008
4	245128	52.6	1008
4	245747	52.7	1008
4	246365	52.8	1008
4	246983	52.9	1008
4	247643	53	1008
4	248261	53.1	1008
4	248769	53.2	1008
4	249387	53.3	1008
4	249895	53.4	1008
4	250513	53.5	1008
4	251132	53.6	1008
4	251640	53.7	1008
4	251834	53.8	1008
4	252342	53.9	1008
4	253002	54	1008
4	253196	54.1	1008
4	253814	54.2	1008
4	254009	54.3	1008
4	254203	54.4	1008
4	254824	54.5	1008
4	255443	54.6	1008
4	255637	54.7	1008
4	256255	54.8	1008
4	256873	54.9	1008
4	257109	55	1008
4	257727	55.1	1008
4	258345	55.2	1008
4	258963	55.3	1008
4	259581	55.4	1008
4	259775	55.5	1008
4	259970	55.6	1008
4	260164	55.7	1008
4	260782	55.8	1008
4	260976	55.9	1008
4	261636	56	1008
4	261830	56.1	1008
4	262131	56.2	1008
4	262325	56.3	1008
4	262519	56.4	1008
4	262715	56.5	1008
4	263333	56.6	1008
4	263951	56.7	1008
4	264569	56.8	1008
4	265187	56.9	1008
4	265847	57	1008
4	266041	57.1	1008
4	266235	57.2	1008
4	266429	57.3	1008
4	266623	57.4	1008
4	266818	57.5	1008
4	267436	57.6	1008
4	268054	57.7	1008
4	268672	57.8	1008
4	269290	57.9	1008
4	269529	58	1008
4	270147	58.1	1008
4	270656	58.2	1008
4	271274	58.3	1008
4	271893	58.4	1008
4	272511	58.5	1008
4	273129	58.6	1008
4	273747	58.7	1008
4	273941	58.8	1008
4	274559	58.9	1008
4	274795	59	1008
4	275303	59.1	1008
4	275921	59.2	1008
4	276539	59.3	1008
4	277157	59.4	1008
4	277352	59.5	1008
4	277970	59.6	1008
4	278588	59.7	1008
4	279206	59.8	1008
4	279403	59.9	1008
4	280063	60	1008
12	0	0	0
12	0	0	2
12	138	0.104071727409	3
12	181	0.104561727409	2
12	1095	0.423480209632	3
12	1138	0.423970209632	2
12	3839	0.903995397354	3
12	3882	0.904485397354	2
12	7805	1.541766167417	3
12	7848	1.542256167417	2
12	13369	4.503140919276	3
12	13412	4.503630919276	2
12	18881	4.537416661638	3
12	18926	4.545714661638	2
12	18977	4.546074661638	3
12	19021	4.554372661638	2
12	19072	4.554412661638	3
12	19116	4.562710661638	2
12	19167	4.562770661638	3
12	19211	4.571068661638	2
12	19262	4.571168661638	3
12	19306	4.579466661638	2
12	19454	4.587965557178	3
12	19498	4.596263557178	2
12	19648	4.605102452718	3
12	19692	4.613400452718	2
12	19847	4.621980449316	3
12	19934	4.630278449316	2
12	19985	4.630358449316	3
12	20127	4.638656449316	2
12	20337	4.647075344856	3
12	20382	4.655373344856	2
12	20433	4.655673344856	3
12	20477	4.663971344856	2
12	20625	4.672990240396	3
12	20669	4.681288240396	2
12	20720	4.681368240396	3
12	20764	4.689666240396	2
12	20919	4.698306236994	3
12	21010	4.706604236994	2
12	21059	4.706844236994	3
12	21201	4.715142236994	2
12	21252	4.715222236994	3
12	21360	4.723520236994	2
12	21613	4.740978436119	3
12	21700	4.749276436119	2
12	22797	4.808804837771	3
12	22841	4.817102837771	2
12	24036	4.90022	3
12	24143	4.908518	2
12	24430	5.00062	3
12	24473	5.008918	2
12	25048	5.10052	3
12	25091	5.108818	2
12	25666	5.20006	3
12	25709	5.208358	2
12	26284	5.30058	3
12	26327	5.308878	2
12	26902	5.40024	3
12	26945	5.408538	2
12	27410	5.50044	3
12	27453	5.508738	2
12	27604	5.60024	3
12	27647	5.608538	2
12	27798	5.70062	3
12	27841	5.708918	2
12	28306	5.8005	3
12	28349	5.808798	2
12	28924	5.90016	3
12	28967	5.908458	2
12	29160	6.00014	3
12	29203	6.008438	2
12	29778	6.10016	3
12	29821	6.108458	2
12	29972	6.20044	3
12	30015	6.208738	2
12	30590	6.30054	3
12	30633	6.308838	2
12	31208	6.40026	3
12	31251	6.408558	2
12	31402	6.50046	3
12	31523	6.508758	2
12	31950	6.60034	3
12	31993	6.608638	2
12	32144	6.70022	3
12	32187	6.708518	2
12	32762	6.80042	3
12	32805	6.808718	2
12	32956	6.90042	3
12	32999	6.908718	2
12	33616	7.0001	3
12	33659	7.008398	2
12	34234	7.10002	3
12	34277	7.108318	2
12	34428	7.20016	3
12	34471	7.208458	2
12	34936	7.30044	3
12	34979	7.308738	2
12	35130	7.40012	3
12	35173	7.408418	2
12	35748	7.5	3
12	35791	7.508298	2
12	36256	7.60018	3
12	36299	7.608478	2
12	36450	7.70014	3
12	36493	7.708438	2
12	37068	7.8001	3
12	37111	7.808398	2
12	37262	7.90014	3
12	37305	7.908438	2
12	37498	8.00012	3
12	37541	8.008418	2
12	37692	8.10046	3
12	37735	8.108758	2
12	38310	8.20054	3
12	38353	8.208838	2
12	38504	8.30028	3
12	38547	8.308578	2
12	39126	8.40004	3
12	39169	8.408338	2
12	39745	8.5002	3
12	39788	8.508498	2
12	40364	8.60046	3
12	40407	8.608758	2
12	40558	8.70006	3
12	40601	8.708358	2
12	41066	8.80014	3
12	41109	8.808438	2
12	41684	8.9001	3
12	41727	8.908398	2
12	42024	9.00044	3
12	42067	9.008738	2
12	42218	9.10014	3
12	42261	9.108438	2
12	42836	9.20016	3
12	42879	9.208458	2
12	43454	9.30034	3
12	43497	9.308638	2
12	43648	9.40054	3
12	43691	9.408838	2
12	44156	9.5003	3
12	44199	9.508598	2
12	44350	9.60042	3
12	44393	9.608718	2
12	44972	9.70058	3
12	45015	9.708878	2
12	45182	9.80006	3
12	45225	9.808358	2
12	45809	9.9006	3
12	45852	9.908898	2
12	46046	10.00016	3
12	46089	10.008458	2
12	46670	10.10028	3
12	46713	10.108578	2
12	46968	10.20004	3
12	47011	10.208338	2
12	47586	10.30006	3
12	47629	10.308358	2
12	47785	10.40048	3
12	47828	10.408778	2
12	48293	10.50054	3
12	48337	10.508838	2
12	48912	10.60024	3
12	48955	10.608538	2
12	49106	10.70056	3
12	49149	10.708858	2
12	49724	10.80048	3
12	49767	10.808778	2
12	50342	10.90032	3
12	50385	10.908618	2
12	51002	11.00014	3
12	51045	11.008438	2
12	51510	11.10058	3
12	51553	11.108878	2
12	52128	11.20048	3
12	52171	11.208778	2
12	52746	11.30042	3
12	52789	11.308718	2
12	52940	11.4004	3
12	52983	11.408698	2
12	53558	11.5	3
12	53601	11.508298	2
12	54176	11.60024	3
12	54219	11.608538	2
12	54684	11.70006	3
12	54727	11.708358	2
12	55302	11.80042	3
12	55345	11.808718	2
12	55920	11.90048	3
12	55963	11.908778	2
12	56577	12.0004	3
12	56620	12.008698	2
12	57195	12.1005	3
12	57238	12.108798	2
12	57813	12.20054	3
12	57856	12.208838	2
12	58436	12.30032	3
12	58479	12.308618	2
12	58630	12.4005	3
12	58674	12.408798	2
12	59176	12.50032	3
12	59219	12.508618	2
12	59370	12.60004	3
12	59413	12.608338	2
12	59878	12.70046	3
12	59921	12.708758	2
12	60496	12.80048	3
12	60539	12.808778	2
12	61114	12.90048	3
12	61162	12.908778	2
12	61393	13.00054	3
12	61436	13.008838	2
12	62011	13.10042	3
12	62054	13.108718	2
12	62629	13.20016	3
12	62672	13.208458	2
12	63247	13.30034	3
12	63290	13.308638	2
12	63865	13.40042	3
12	63908	13.408718	2
12	64483	13.50044	3
12	64526	13.508738	2
12	65070	13.6004	3
12	65113	13.608698	2
12	65688	13.70024	3
12	65731	13.708538	2
12	66196	13.80058	3
12	66239	13.808878	2
12	66390	13.90014	3
12	66433	13.908438	2
12	67050	14.0005	3
12	67093	14.008798	2
12	67668	14.10018	3
12	67711	14.108478	2
12	67966	14.20018	3
12	68009	14.208478	2
12	68584	14.3	3
12	68627	14.308298	2
12	68778	14.40048	3
12	68821	14.408778	2
12	69396	14.50062	3
12	69439	14.508918	2
12	70014	14.6003	3
12	70057	14.608598	2
12	70632	14.70004	3
12	70675	14.708338	2
12	70826	14.80012	3
12	70869	14.808418	2
12	71020	14.90058	3
12	71063	14.908878	2
12	71680	15.00044	3
12	71723	15.008738	2
12	72298	15.10042	3
12	72341	15.108718	2
12	72916	15.20008	3
12	72959	15.208378	2
12	73534	15.30052	3
12	73577	15.308818	2
12	74152	15.4	3
12	74195	15.408298	2
12	74772	15.50018	3
12	74815	15.508478	2
12	75394	15.60052	3
12	75437	15.608818	2
12	75588	15.70052	3
12	75631	15.708818	2
12	76206	15.80032	3
12	76249	15.808618	2
12	76824	15.90026	3
12	76867	15.908558	2
12	77484	16.00022	3
12	77527	16.008518	2
12	78102	16.10026	3
12	78145	16.108558	2
12	78400	16.20034	3
12	78443	16.208638	2
12	79018	16.30006	3
12	79061	16.308358	2
12	79526	16.4002	3
12	79569	16.408498	2
12	80144	16.50022	3
12	80257	16.508518	2
12	81003	16.60048	3
12	81046	16.608778	2
12	81301	16.70034	3
12	81344	16.708638	2
12	81919	16.8005	3
12	81962	16.808798	2
12	82537	16.90016	3
12	82580	16.908458	2
12	83197	17.00054	3
12	83240	17.008838	2
12	83815	17.10056	3
12	83858	17.108858	2
12	84433	17.2001	3
12	84476	17.208398	2
12	85051	17.3003	3
12	85094	17.308598	2
12	85669	17.4006	3
12	85712	17.408898	2
12	86287	17.50024	3
12	86330	17.508538	2
12	86481	17.60046	3
12	86524	17.608758	2
12	86675	17.70062	3
12	86718	17.708918	2
12	87293	17.80034	3
12	87336	17.808638	2
12	87487	17.90062	3
12	87530	17.908918	2
12	87723	18.00008	3
12	87766	18.008378	2
12	87917	18.10044	3
12	87960	18.108738	2
12	88535	18.20036	3
12	88578	18.208658	2
12	89043	18.30032	3
12	89086	18.308618	2
12	89661	18.4001	3
12	89704	18.408398	2
12	90284	18.5	3
12	90327	18.508298	2
12	90479	18.60002	3
12	90522	18.608318	2
12	90673	18.70044	3
12	90716	18.708738	2
12	90867	18.80032	3
12	90910	18.808618	2
12	91485	18.90024	3
12	91528	18.908538	2
12	91721	19.00004	3
12	91764	19.008338	2
12	92339	19.10026	3
12	92382	19.108558	2
12	92533	19.20048	3
12	92576	19.208778	2
12	93151	19.30038	3
12	93194	19.308678	2
12	93769	19.40016	3
12	93812	19.408458	2
12	94067	19.50036	3
12	94110	19.508658	2
12	94685	19.60058	3
12	94728	19.608878	2
12	94987	19.7004	3
12	95030	19.708698	2
12	95621	19.80004	3
12	95664	19.808338	2
12	96248	19.90006	3
12	96291	19.908358	2
12	96909	20.00004	3
12	96952	20.008338	2
12	97533	20.10034	3
12	97576	20.108638	2
12	98151	20.20054	3
12	98194	20.208838	2
12	98659	20.30054	3
12	98702	20.308838	2
12	98858	20.40008	3
12	98901	20.408378	2
12	99476	20.5	3
12	99519	20.508298	2
12	100095	20.60044	3
12	100138	20.608738	2
12	100393	20.70048	3
12	100436	20.708778	2
12	100587	20.8003	3
12	100630	20.808598	2
12	100781	20.9005	3
12	100824	20.908798	2
12	101331	21.00036	3
12	101374	21.008658	2
12	101629	21.10046	3
12	101672	21.108758	2
12	102137	21.20044	3
12	102180	21.208738	2
12	102331	21.30054	3
12	102374	21.308838	2
12	102525	21.40044	3
12	102568	21.408738	2
12	103143	21.50038	3
12	103186	21.508678	2
12	103337	21.60022	3
12	103380	21.608518	2
12	103955	21.70038	3
12	103998	21.708678	2
12	104149	21.80002	3
12	104192	21.808318	2
12	104657	21.9001	3
12	104700	21.908398	2
12	105207	22.00042	3
12	105250	22.008718	2
12	105825	22.10004	3
12	105868	22.108338	2
12	106444	22.20046	3
12	106487	22.208758	2
12	106642	22.30046	3
12	106685	22.308758	2
12	106836	22.40014	3
12	106880	22.408438	2
12	107031	22.50016	3
12	107074	22.508458	2
12	107649	22.60036	3
12	107692	22.608658	2
12	108157	22.70048	3
12	108200	22.708778	2
12	108455	22.80012	3
12	108498	22.808418	2
12	109073	22.90054	3
12	109116	22.908838	2
12	109733	23.0001	3
12	109776	23.008398	2
12	110351	23.10016	3
12	110394	23.108458	2
12	110969	23.20062	3
12	111012	23.208918	2
12	111587	23.30016	3
12	111630	23.308458	2
12	112205	23.40032	3
12	112248	23.408618	2
12	112823	23.50038	3
12	112866	23.508678	2
12	113017	23.6003	3
12	113060	23.608598	2
12	113635	23.70048	3
12	113678	23.708778	2
12	114253	23.80034	3
12	114296	23.808638	2
12	114871	23.90008	3
12	114914	23.908378	2
12	115531	24.00044	3
12	115574	24.008738	2
12	115725	24.10028	3
12	115768	24.108578	2
12	115924	24.20008	3
12	115967	24.208378	2
12	116118	24.3006	3
12	116162	24.308898	2
12	116627	24.40058	3
12	116670	24.408878	2
12	117245	24.5002	3
12	117288	24.508498	2
12	117439	24.60016	3
12	117482	24.608458	2
12	118057	24.70028	3
12	118100	24.708578	2
12	118251	24.8004	3
12	118294	24.808698	2
12	118759	24.90034	3
12	118802	24.908638	2
12	118995	25.00028	3
12	119038	25.008578	2
12	119613	25.1006	3
12	119656	25.108898	2
12	120231	25.20008	3
12	120274	25.208378	2
12	120425	25.30046	3
12	120468	25.308758	2
12	121040	25.40028	3
12	121083	25.408578	2
12	121234	25.50028	3
12	121277	25.508578	2
12	121852	25.60056	3
12	121895	25.608858	2
12	122046	25.7002	3
12	122089	25.708498	2
12	122554	25.80046	3
12	122597	25.808758	2
12	123172	25.90056	3
12	123215	25.908858	2
12	123836	26.00006	3
12	123879	26.008358	2
12	124455	26.10046	3
12	124498	26.108758	2
12	124649	26.20038	3
12	124693	26.208678	2
12	125268	26.30008	3
12	125311	26.308378	2
12	125886	26.40038	3
12	125929	26.408678	2
12	126080	26.5001	3
12	126123	26.508398	2
12	126698	26.6003	3
12	126741	26.608598	2
12	127316	26.70006	3
12	127359	26.708358	2
12	127934	26.80054	3
12	127977	26.808838	2
12	128552	26.90042	3
12	128595	26.908718	2
12	128788	27.00036	3
12	128831	27.008658	2
12	129406	27.10012	3
12	129449	27.108418	2
12	130024	27.2006	3
12	130067	27.208898	2
12	130218	27.30024	3
12	130261	27.308538	2
12	130836	27.40012	3
12	130879	27.408418	2
12	131454	27.50026	3
12	131497	27.508558	2
12	131752	27.60014	3
12	131795	27.608438	2
12	132370	27.70044	3
12	132413	27.708738	2
12	132564	27.80032	3
12	132607	27.808618	2
12	133186	27.90048	3
12	133229	27.908778	2
12	133847	28.00058	3
12	133890	28.008878	2
12	134041	28.10008	3
12	134084	28.108378	2
12	134236	28.20018	3
12	134279	28.208478	2
12	134534	28.30018	3
12	134577	28.308478	2
12	134832	28.40058	3
12	134875	28.408878	2
12	135450	28.5002	3
12	135493	28.508498	2
12	135644	28.6	3
12	135687	28.608298	2
12	135838	28.70048	3
12	135881	28.708778	2
12	136453	28.80036	3
12	136496	28.808658	2
12	137071	28.9006	3
12	137114	28.908898	2
12	137731	29.00042	3
12	137774	29.008718	2
12	138349	29.10048	3
12	138392	29.108778	2
12	138857	29.20004	3
12	138900	29.208338	2
12	139475	29.30016	3
12	139518	29.308458	2
12	139983	29.40016	3
12	140026	29.408458	2
12	140177	29.50004	3
12	140220	29.508338	2
12	140795	29.6003	3
12	140838	29.608598	2
12	140993	29.70006	3
12	141036	29.708358	2
12	141187	29.80048	3
12	141230	29.808778	2
12	141696	29.9003	3
12	141739	29.908598	2
12	142356	30.00038	3
12	142399	30.008678	2
12	142864	30.10008	3
12	142907	30.108378	2
12	143163	30.2	3
12	143206	30.208298	2
12	143357	30.30026	3
12	143400	30.308558	2
12	143975	30.40062	3
12	144018	30.408918	2
12	144169	30.5002	3
12	144212	30.508498	2
12	144787	30.60028	3
12	144830	30.608578	2
12	144981	30.7005	3
12	145024	30.708798	2
12	145599	30.8	3
12	145642	30.808298	2
12	146217	30.90028	3
12	146260	30.908578	2
12	146453	31.00058	3
12	146496	31.008878	2
12	146961	31.10058	3
12	147004	31.108878	2
12	147576	31.20016	3
12	147619	31.208458	2
12	148084	31.30016	3
12	148127	31.308458	2
12	148592	31.40032	3
12	148635	31.408618	2
12	149210	31.50004	3
12	149253	31.508338	2
12	149832	31.60014	3
12	149875	31.608438	2
12	150450	31.70048	3
12	150493	31.708778	2
12	151069	31.80002	3
12	151112	31.808318	2
12	151687	31.90008	3
12	151730	31.908378	2
12	152347	32.00008	3
12	152390	32.008378	2
12	152966	32.10006	3
12	153009	32.108358	2
12	153584	32.20022	3
12	153627	32.208518	2
12	154202	32.3005	3
12	154245	32.308798	2
12	154396	32.40014	3
12	154439	32.408438	2
12	154904	32.50026	3
12	154947	32.508558	2
12	155202	32.6005	3
12	155245	32.608798	2
12	155820	32.70056	3
12	155863	32.708858	2
12	156328	32.80044	3
12	156371	32.808738	2
12	156946	32.90058	3
12	156989	32.908878	2
12	157182	33.0002	3
12	157225	33.008498	2
12	157376	33.10044	3
12	157419	33.108738	2
12	157994	33.20058	3
12	158037	33.208878	2
12	158612	33.30054	3
12	158655	33.308838	2
12	159230	33.40052	3
12	159273	33.408818	2
12	159742	33.50034	3
12	159785	33.508638	2
12	160360	33.60034	3
12	160403	33.608638	2
12	160869	33.70006	3
12	160912	33.708358	2
12	161487	33.80022	3
12	161530	33.808518	2
12	162105	33.90034	3
12	162148	33.908638	2
12	162341	34.00042	3
12	162385	34.008718	2
12	162960	34.10024	3
12	163003	34.108538	2
12	163578	34.20062	3
12	163621	34.208918	2
12	164196	34.30052	3
12	164239	34.308818	2
12	164814	34.40054	3
12	164857	34.408838	2
12	165112	34.5	3
12	165155	34.508298	2
12	165730	34.6003	3
12	165773	34.608598	2
12	166348	34.70062	3
12	166391	34.708918	2
12	166856	34.80034	3
12	166899	34.808638	2
12	167050	34.90044	3
12	167093	34.908738	2
12	167600	35.00054	3
12	167643	35.008838	2
12	168218	35.1001	3
12	168261	35.108398	2
12	168412	35.20028	3
12	168455	35.208578	2
12	169030	35.3005	3
12	169073	35.308798	2
12	169652	35.4005	3
12	169695	35.408798	2
12	170270	35.50036	3
12	170313	35.508658	2
12	170889	35.6004	3
12	170932	35.608698	2
12	171507	35.70042	3
12	171550	35.708718	2
12	172125	35.80056	3
12	172168	35.808858	2
12	172319	35.9003	3
12	172362	35.908598	2
12	172556	36.00012	3
12	172599	36.008418	2
12	172854	36.10058	3
12	172897	36.108878	2
12	173472	36.2003	3
12	173515	36.208598	2
12	173666	36.3004	3
12	173709	36.308698	2
12	173860	36.40022	3
12	173903	36.408518	2
12	174478	36.50028	3
12	174521	36.508578	2
12	175096	36.60042	3
12	175139	36.608718	2
12	175714	36.70018	3
12	175757	36.708478	2
12	175908	36.80012	3
12	175951	36.808418	2
12	176102	36.90012	3
12	176145	36.908418	2
12	176762	37.0005	3
12	176805	37.008798	2
12	176956	37.10034	3
12	176999	37.108638	2
12	177150	37.20022	3
12	177193	37.208518	2
12	177344	37.30048	3
12	177387	37.308778	2
12	177542	37.40052	3
12	177585	37.408818	2
12	178161	37.50054	3
12	178204	37.508838	2
12	178779	37.60032	3
12	178822	37.608618	2
12	179287	37.70054	3
12	179330	37.708838	2
12	179905	37.8001	3
12	179948	37.808398	2
12	180099	37.90008	3
12	180142	37.908378	2
12	180760	38.00048	3
12	180803	38.008778	2
12	180954	38.10052	3
12	180997	38.108818	2
12	181572	38.20038	3
12	181615	38.208678	2
12	182190	38.30034	3
12	182233	38.308638	2
12	182488	38.40034	3
12	182531	38.408638	2
12	183103	38.50056	3
12	183146	38.508858	2
12	183721	38.60048	3
12	183764	38.608778	2
12	183915	38.70058	3
12	183958	38.708878	2
12	184533	38.8006	3
12	184576	38.808898	2
12	185151	38.90052	3
12	185194	38.908818	2
12	185815	39.0003	3
12	185858	39.008598	2
12	186009	39.1	3
12	186052	39.108298	2
12	186517	39.2001	3
12	186560	39.208398	2
12	187135	39.3003	3
12	187178	39.308598	2
12	187330	39.40046	3
12	187373	39.408758	2
12	187524	39.5001	3
12	187567	39.508398	2
12	188142	39.60024	3
12	188185	39.608538	2
12	188336	39.70004	3
12	188379	39.708338	2
12	188844	39.80034	3
12	188887	39.808638	2
12	189038	39.90056	3
12	189082	39.908858	2
12	189699	40.00022	3
12	189742	40.008518	2
12	189893	40.1	3
12	189936	40.108298	2
12	190401	40.20012	3
12	190444	40.208418	2
12	190595	40.30024	3
12	190638	40.308538	2
12	191213	40.40032	3
12	191256	40.408618	2
12	191831	40.50032	3
12	191874	40.508618	2
12	192449	40.60048	3
12	192492	40.608778	2
12	193067	40.70042	3
12	193110	40.708718	2
12	193261	40.80012	3
12	193304	40.808418	2
12	193882	40.90058	3
12	193925	40.908878	2
12	194543	41.00022	3
12	194586	41.008518	2
12	194737	41.10056	3
12	194780	41.108858	2
12	195355	41.20046	3
12	195398	41.208758	2
12	195550	41.3004	3
12	195593	41.308698	2
12	196058	41.4005	3
12	196101	41.408798	2
12	196252	41.50022	3
12	196295	41.508518	2
12	196870	41.60008	3
12	196913	41.608378	2
12	197064	41.70056	3
12	197107	41.708858	2
12	197258	41.80058	3
12	197302	41.808878	2
12	197877	41.90016	3
12	197920	41.908458	2
12	198427	42.00052	3
12	198470	42.008818	2
12	199045	42.10012	3
12	199088	42.108418	2
12	199239	42.20052	3
12	199282	42.208818	2
12	199433	42.30044	3
12	199476	42.308738	2
12	200051	42.40002	3
12	200094	42.408318	2
12	200349	42.50034	3
12	200392	42.508638	2
12	200748	42.6005	3
12	200791	42.608798	2
12	200942	42.70044	3
12	200985	42.708738	2
12	201560	42.80062	3
12	201603	42.808918	2
12	201757	42.90034	3
12	201800	42.908638	2
12	201994	43.00014	3
12	202037	43.008438	2
12	202188	43.10024	3
12	202231	43.108538	2
12	202383	43.20008	3
12	202426	43.208378	2
12	202577	43.30016	3
12	202620	43.308458	2
12	202771	43.40042	3
12	202814	43.408718	2
12	202965	43.50056	3
12	203008	43.508858	2
12	203583	43.60022	3
12	203626	43.608518	2
12	203881	43.70002	3
12	203924	43.708318	2
12	204076	43.80014	3
12	204119	43.808438	2
12	204270	43.90024	3
12	204313	43.908538	2
12	204930	44.00034	3
12	204973	44.008638	2
12	205124	44.10024	3
12	205167	44.108538	2
12	205742	44.20044	3
12	205785	44.208738	2
12	206360	44.30032	3
12	206403	44.308618	2
12	206975	44.40026	3
12	207018	44.408558	2
12	207169	44.5002	3
12	207212	44.508498	2
12	207787	44.60016	3
12	207830	44.608458	2
12	208085	44.70038	3
12	208128	44.708678	2
12	208707	44.80022	3
12	208750	44.808518	2
12	209322	44.90008	3
12	209365	44.908378	2
12	209982	45.00052	3
12	210025	45.008818	2
12	210601	45.1	3
12	210644	45.108298	2
12	210795	45.2006	3
12	210838	45.208898	2
12	211413	45.30052	3
12	211456	45.308818	2
12	211711	45.40046	3
12	211754	45.408758	2
12	211905	45.50038	3
12	211948	45.508678	2
12	212413	45.60046	3
12	212456	45.608758	2
12	212607	45.70052	3
12	212651	45.708818	2
12	212906	45.80014	3
12	212949	45.808438	2
12	213524	45.90028	3
12	213567	45.908578	2
12	213760	46.00002	3
12	213803	46.008318	2
12	213954	46.10056	3
12	213997	46.108858	2
12	214572	46.20048	3
12	214615	46.208778	2
12	215190	46.30006	3
12	215233	46.308358	2
12	215384	46.40042	3
12	215427	46.408718	2
12	215578	46.50062	3
12	215621	46.508918	2
12	216196	46.60022	3
12	216239	46.608518	2
12	216814	46.70014	3
12	216857	46.708438	2
12	217326	46.80062	3
12	217369	46.808918	2
12	217834	46.90052	3
12	217877	46.908818	2
12	218071	47.00046	3
12	218114	47.008758	2
12	218689	47.10008	3
12	218732	47.108378	2
12	219307	47.2005	3
12	219350	47.208798	2
12	219815	47.30062	3
12	219858	47.308918	2
12	220009	47.40006	3
12	220052	47.408358	2
12	220627	47.50026	3
12	220670	47.508558	2
12	221245	47.60036	3
12	221288	47.608658	2
12	221864	47.70022	3
12	221907	47.708518	2
12	222058	47.80002	3
12	222101	47.808318	2
12	222676	47.90032	3
12	222719	47.908618	2
12	223336	48.00028	3
12	223379	48.008578	2
12	223530	48.1003	3
12	223573	48.108598	2
12	224148	48.20044	3
12	224191	48.208738	2
12	224766	48.30016	3
12	224809	48.308458	2
12	225384	48.40038	3
12	225427	48.408678	2
12	225682	48.50002	3
12	225725	48.508318	2
12	226297	48.6002	3
12	226340	48.608498	2
12	226494	48.70006	3
12	226537	48.708358	2
12	227113	48.8	3
12	227156	48.808298	2
12	227622	48.90032	3
12	227665	48.908618	2
12	227962	49.00012	3
12	228005	49.008418	2
12	228580	49.10052	3
12	228623	49.108818	2
12	228774	49.2003	3
12	228817	49.208598	2
12	228968	49.30022	3
12	229011	49.308518	2
12	229586	49.40004	3
12	229629	49.408338	2
12	230204	49.50056	3
12	230247	49.508858	2
12	230398	49.6001	3
12	230441	49.608398	2
12	230907	49.7006	3
12	230950	49.708898	2
12	231525	49.80046	3
12	231568	49.808758	2
12	231719	49.90002	3
12	231762	49.908318	2
12	232379	50.0001	3
12	232422	50.008398	2
12	232997	50.10056	3
12	233040	50.108858	2
12	233505	50.2003	3
12	233548	50.208598	2
12	234123	50.30038	3
12	234166	50.308678	2
12	234741	50.40046	3
12	234784	50.408758	2
12	235359	50.50046	3
12	235402	50.508758	2
12	235981	50.60022	3
12	236024	50.608518	2
12	236175	50.70004	3
12	236218	50.708338	2
12	236794	50.80056	3
12	236837	50.808858	2
12	236988	50.90006	3
12	237031	50.908358	2
12	237648	51.00002	3
12	237691	51.008318	2
12	238266	51.1005	3
12	238309	51.108798	2
12	238460	51.20018	3
12	238503	51.208478	2
12	239078	51.30032	3
12	239121	51.308618	2
12	239586	51.4004	3
12	239629	51.408698	2
12	239884	51.50024	3
12	239927	51.508538	2
12	240502	51.60044	3
12	240546	51.608738	2
12	241011	51.70036	3
12	241054	51.708658	2
12	241629	51.8006	3
12	241672	51.808898	2
12	241927	51.9002	3
12	241970	51.908498	2
12	242587	52.00042	3
12	242630	52.008718	2
12	242885	52.10052	3
12	242928	52.108818	2
12	243503	52.20056	3
12	243546	52.208858	2
12	244121	52.30038	3
12	244164	52.308678	2
12	244315	52.40018	3
12	244358	52.408478	2
12	244936	52.50058	3
12	244979	52.508878	2
12	245131	52.6005	3
12	245174	52.608798	2
12	245750	52.70052	3
12	245793	52.708818	2
12	246368	52.80054	3
12	246411	52.808838	2
12	246986	52.90002	3
12	247029	52.908318	2
12	247646	53	3
12	247689	53.008298	2
12	248264	53.10008	3
12	248307	53.108378	2
12	248772	53.2	3
12	248815	53.208298	2
12	249390	53.30022	3
12	249433	53.308518	2
12	249898	53.40024	3
12	249941	53.408538	2
12	250516	53.50022	3
12	250559	53.508518	2
12	251135	53.60048	3
12	251178	53.608778	2
12	251643	53.70016	3
12	251686	53.708458	2
12	251837	53.80038	3
12	251880	53.808678	2
12	252345	53.90032	3
12	252388	53.908618	2
12	253005	54.00034	3
12	253048	54.008638	2
12	253199	54.10046	3
12	253242	54.108758	2
12	253817	54.20042	3
12	253860	54.208718	2
12	254012	54.30044	3
12	254055	54.308738	2
12	254206	54.40028	3
12	254249	54.408578	2
12	254827	54.50018	3
12	254870	54.508478	2
12	255446	54.60008	3
12	255489	54.608378	2
12	255640	54.70052	3
12	255683	54.708818	2
12	256258	54.80018	3
12	256301	54.808478	2
12	256876	54.90008	3
12	256919	54.908378	2
12	257112	55.00024	3
12	257155	55.008538	2
12	257730	55.10058	3
12	257773	55.108878	2
12	258348	55.20032	3
12	258391	55.208618	2
12	258966	55.3006	3
12	259009	55.308898	2
12	259584	55.40028	3
12	259627	55.408578	2
12	259778	55.50054	3
12	259822	55.508838	2
12	259973	55.6004	3
12	260016	55.608698	2
12	260167	55.70056	3
12	260210	55.708858	2
12	260785	55.80018	3
12	260828	55.808478	2
12	260979	55.90004	3
12	261022	55.908338	2
12	261639	56.0003	3
12	261682	56.008598	2
12	261833	56.10032	3
12	261876	56.108618	2
12	262134	56.2005	3
12	262177	56.208798	2
12	262328	56.30006	3
12	262371	56.308358	2
12	262522	56.40042	3
12	262565	56.408718	2
12	262718	56.5	3
12	262761	56.508298	2
12	263336	56.60036	3
12	263379	56.608658	2
12	263954	56.70012	3
12	263997	56.708418	2
12	264572	56.80044	3
12	264615	56.808738	2
12	265190	56.90038	3
12	265233	56.908678	2
12	265850	57.00018	3
12	265893	57.008478	2
12	266044	57.10002	3
12	266087	57.108318	2
12	266238	57.20028	3
12	266281	57.208578	2
12	266432	57.30042	3
12	266475	57.308718	2
12	266626	57.40026	3
12	266669	57.408558	2
12	266821	57.50052	3
12	266864	57.508818	2
12	267439	57.6005	3
12	267482	57.608798	2
12	268057	57.70022	3
12	268100	57.708518	2
12	268675	57.80052	3
12	268718	57.808818	2
12	269293	57.90046	3
12	269336	57.908758	2
12	269532	58.00044	3
12	269575	58.008738	2
12	270150	58.10062	3
12	270193	58.108918	2
12	270659	58.2003	3
12	270702	58.208598	2
12	271277	58.30014	3
12	271320	58.308438	2
12	271896	58.4006	3
12	271939	58.408898	2
12	272514	58.50014	3
12	272557	58.508438	2
12	273132	58.60006	3
12	273175	58.608358	2
12	273750	58.70026	3
12	273793	58.708558	2
12	273944	58.80024	3
12	273987	58.808538	2
12	274562	58.90022	3
12	274605	58.908518	2
12	274798	59.00046	3
12	274841	59.008758	2
12	275306	59.10048	3
12	275349	59.108778	2
12	275924	59.2003	3
12	275967	59.208598	2
12	276542	59.3	3
12	276585	59.308298	2
12	277160	59.40054	3
12	277204	59.408838	2
12	277355	59.50048	3
12	277398	59.508778	2
12	277973	59.60026	3
12	278016	59.608558	2
12	278591	59.70014	3
12	278634	59.708438	2
12	279209	59.8002	3
12	279252	59.808498	2
12	279406	59.90046	3
12	279449	59.908758	2
13	0	0	1
13	138	0.104071727409	0
13	181	0.104561727409	1
13	260	0.105243606365	3
13	332	0.105733606365	1
13	379	0.10605389164	3
13	438	0.10654389164	1
13	493	0.107004082587	3
13	544	0.107494082587	1
13	613	0.107855215056	3
13	670	0.108345215056	1
13	726	0.108972808306	3
13	803	0.109462808306	1
13	851	0.109502983116	3
13	905	0.109992983116	1
13	967	0.110373593399	3
13	1033	0.110863593399	1
13	1095	0.423480209632	0
13	1138	0.423970209632	1
13	1213	0.424812717198	3
13	1279	0.425302717198	1
13	1336	0.426657554656	3
13	1411	0.427147554656	1
13	1464	0.427425568555	3
13	1517	0.427915568555	1
13	1586	0.42809626129	3
13	1688	0.42858626129	2
13	1739	0.428706701024	1
13	1796	0.428767631822	2
13	1888	0.429257631822	1
13	1982	0.429318678095	2
13	2087	0.429808433594	1
13	2124	0.430188874766	3
13	2196	0.430678874766	1
13	2380	0.431310249749	3
13	2481	0.431800249749	1
13	2966	0.433306619725	2
13	3015	0.433515322826	1
13	3055	0.433695404865	2
13	3238	0.434185404865	1
13	3343	0.434447001491	2
13	3433	0.434937001491	1
13	3839	0.903995397354	0
13	3882	0.904485397354	1
13	3961	0.905731224178	3
13	4029	0.906221224178	1
13	4076	0.906581696409	3
13	4135	0.907071696409	1
13	4178	0.907131793954	3
13	4234	0.907621793954	1
13	4291	0.907742023101	3
13	4344	0.908232023101	1
13	4427	0.908373267375	2
13	4519	0.908863267375	1
13	4556	0.909123297953	3
13	4668	0.909613297953	1
13	4709	0.909793804257	3
13	4871	0.910283804257	1
13	4930	0.910304505412	2
13	5054	0.910794505412	1
13	5096	0.910974572536	3
13	5211	0.911464572536	1
13	5266	0.911525306078	2
13	5463	0.912015306078	1
13	6507	0.914643684918	2
13	6556	0.91486800404	1
13	7805	1.541766167417	0
13	7848	1.542256167417	1
13	7923	1.543367196225	3
13	7995	1.543857196225	1
13	8026	1.543857733853	3
13	8121	1.544347733853	1
13	8141	1.544348019128	3
13	8225	1.544838019128	1
13	8687	1.546618402771	2
13	8800	1.547108402771	1
13	8834	1.547168795144	3
13	9021	1.547658795144	1
13	9070	1.547839024291	3
13	9252	1.548329024291	1
13	9357	1.54871015676	3
13	9613	1.54920015676	1
13	9788	1.549732817795	2
13	9924	1.550222817795	1
13	10316	1.551324497683	3
13	10535	1.551814497683	1
13	10778	1.552342688697	2
13	10981	1.552832688697	1
13	13369	4.503140919276	0
13	13412	4.503630919276	1
13	13485	4.504087429304	3
13	13539	4.504577429304	1
13	13600	4.504678190701	3
13	13661	4.505168190701	1
13	13721	4.505446757235	2
13	13815	4.505936757235	1
13	13858	4.506097040103	2
13	13952	4.506587040103	1
13	14026	4.506847558411	3
13	14145	4.507337558411	1
13	14337	4.508129119333	3
13	14435	4.508619119333	1
13	14576	4.508879980724	3
13	14683	4.509369980724	1
13	14804	4.509492624847	2
13	14848	4.50983007789	1
13	15229	4.510633540963	2
13	15345	4.511122751917	1
13	15404	4.511203419212	3
13	15556	4.511693419212	1
13	15754	4.512294160796	3
13	15912	4.512784160796	1
13	16031	4.513105906801	2
13	16080	4.513355161377	1
13	16195	4.513695243416	2
13	16304	4.514185243416	1
13	18655	4.533344453899	2
13	18715	4.533802453899	1
13	18746	4.536398661638	3
13	18792	4.536856661638	1
13	18881	4.537416661638	0
13	18926	4.545714661638	1
13	18977	4.546074661638	0
13	19021	4.554372661638	1
13	19072	4.554412661638	0
13	19116	4.562710661638	1
13	19167	4.562770661638	0
13	19211	4.571068661638	1
13	19262	4.571168661638	0
13	19306	4.579466661638	1
13	19363	4.579587557178	3
13	19410	4.587885557178	1
13	19454	4.587965557178	0
13	19498	4.596263557178	1
13	19555	4.596384452718	3
13	19606	4.604682452718	1
13	19648	4.605102452718	0
13	19692	4.613400452718	1
13	19764	4.613522449316	2
13	19825	4.621820449316	1
13	19847	4.621980449316	0
13	19934	4.630278449316	1
13	19985	4.630358449316	0
13	20127	4.638656449316	1
13	20184	4.638737344856	3
13	20295	4.647035344856	1
13	20337	4.647075344856	0
13	20382	4.655373344856	1
13	20433	4.655673344856	0
13	20477	4.663971344856	1
13	20534	4.664312240396	3
13	20581	4.672610240396	1
13	20625	4.672990240396	0
13	20669	4.681288240396	1
13	20720	4.681368240396	0
13	20764	4.689666240396	1
13	20836	4.689748236994	2
13	20897	4.698046236994	1
13	20919	4.698306236994	0
13	21010	4.706604236994	1
13	21059	4.706844236994	0
13	21201	4.715142236994	1
13	21252	4.715222236994	0
13	21360	4.723520236994	1
13	21417	4.723881132534	3
13	21465	4.732179132534	1
13	21530	4.732560436119	2
13	21591	4.740858436119	1
13	21613	4.740978436119	0
13	21700	4.749276436119	1
13	21755	4.749477331659	3
13	21900	4.757775331659	1
13	22011	4.758095331659	3
13	22102	4.766393331659	1
13	22214	4.766753331659	3
13	22262	4.775051331659	1
13	22327	4.775152635244	2
13	22389	4.783450635244	1
13	22417	4.783690837771	3
13	22507	4.791988837771	1
13	22555	4.792028837771	3
13	22657	4.800326837771	1
13	22705	4.800346837771	3
13	22753	4.808644837771	1
13	22797	4.808804837771	0
13	22841	4.817102837771	1
13	22913	4.817124834369	2
13	22972	4.825422834369	1
13	23000	4.825483036896	3
13	23047	4.833781036896	1
13	23112	4.834002340481	2
13	23173	4.842300340481	1
13	23244	4.842520543008	3
13	23346	4.850818543008	1
13	23435	4.851438543008	3
13	23545	4.859736543008	1
13	23593	4.859756543008	3
13	23641	4.868054543008	1
13	23691	4.868294543008	3
13	23739	4.876592543008	1
13	23804	4.877013846593	2
13	23865	4.885311846593	1
13	24036	4.90022	0
13	24143	4.908518	1
13	24200	4.90871889554	3
13	24290	4.91701689554	2
13	24339	4.917017996598	1
13	24430	5.00062	0
13	24473	5.008918	1
13	24530	5.00903889554	3
13	24576	5.01733689554	1
13	24641	5.017378199125	2
13	24702	5.025676199125	1
13	25048	5.10052	0
13	25091	5.108818	1
13	25148	5.10901889554	3
13	25194	5.11731689554	1
13	25259	5.117758199125	2
13	25320	5.126056199125	1
13	25666	5.20006	0
13	25709	5.208358	1
13	25766	5.20869889554	3
13	25812	5.21699689554	1
13	25877	5.217538199125	2
13	25938	5.225836199125	1
13	26284	5.30058	0
13	26327	5.308878	1
13	26384	5.30927889554	3
13	26430	5.31757689554	1
13	26495	5.318118199125	2
13	26556	5.326416199125	1
13	26902	5.40024	0
13	26945	5.408538	1
13	27002	5.40909889554	3
13	27048	5.41739689554	1
13	27113	5.417858199125	2
13	27174	5.426156199125	1
13	27410	5.50044	0
13	27453	5.508738	1
13	27510	5.50925889554	3
13	27556	5.51755689554	1
13	27604	5.60024	0
13	27647	5.608538	1
13	27704	5.60915889554	3
13	27750	5.61745689554	1
13	27798	5.70062	0
13	27841	5.708918	1
13	27898	5.70901889554	3
13	27944	5.71731689554	1
13	28009	5.717578199125	2
13	28070	5.725876199125	1
13	28306	5.8005	0
13	28349	5.808798	1
13	28406	5.80929889554	3
13	28452	5.81759689554	1
13	28517	5.818058199125	2
13	28578	5.826356199125	1
13	28924	5.90016	0
13	28967	5.908458	1
13	29024	5.90863889554	3
13	29070	5.91693689554	1
13	29160	6.00014	0
13	29203	6.008438	1
13	29260	6.00897889554	3
13	29306	6.01727689554	1
13	29371	6.017798199125	2
13	29432	6.026096199125	1
13	29778	6.10016	0
13	29821	6.108458	1
13	29878	6.10879889554	3
13	29924	6.11709689554	1
13	29972	6.20044	0
13	30015	6.208738	1
[...]
267	3482	0.435157953659	2
267	3591	0.435647953659	1
267	3681	0.435728785208	2
267	3755	0.436218287471	1
267	5154	0.911305251921	2
267	5355	0.911795251921	1
267	5398	0.911855725753	2
267	5480	0.912016387377	1
267	5568	0.912405728081	3
267	5674	0.912895728081	1
267	5831	0.913022097595	3
267	5955	0.913512097595	1
267	6103	0.913672654545	3
267	6238	0.914130654545	1
267	6269	0.914131373065	3
267	6399	0.914621373065	1
267	6489	0.91464265369	2
267	6629	0.91513265369	1
267	6666	0.915173079739	3
267	6760	0.915663079739	1
267	7014	0.91629455815	2
267	7128	0.916784468628	1
267	7164	0.916884721604	3
267	7281	0.917374721604	1
267	7438	0.917975894197	2
267	7558	0.918465894197	1
267	7596	0.918825943571	3
267	7666	0.919315943571	1
267	8743	1.546958575095	2
267	8822	1.547109640361	1
267	8866	1.547170940763	2
267	8944	1.547448575095	1
267	9336	1.54843149604	2
267	9445	1.548749716763	1
267	9549	1.549161890333	2
267	9717	1.549651890333	1
267	9829	1.549891899944	3
267	10030	1.550381899944	1
267	10191	1.550900740826	3
267	10370	1.551390740826	1
267	10455	1.551600790746	3
267	10634	1.552090790746	1
267	10727	1.552151882857	3
267	10855	1.552641882857	1
267	10888	1.552742234125	3
267	11061	1.553232234125	1
267	11188	1.553493930861	2
267	11351	1.554114190305	1
267	11393	1.554174604973	3
267	11472	1.554632604973	2
267	11562	1.554664783863	1
267	11600	1.554765093727	3
267	11651	1.555255093727	1
267	11723	1.555475093727	0
267	11768	1.555965093727	1
267	11863	1.556006343021	3
267	11968	1.556496343021	2
267	12032	1.556596684593	3
267	12112	1.557086684593	1
267	12197	1.557167672573	3
267	12252	1.557657672573	1
267	12319	1.557758244211	3
267	12380	1.558248244211	1
267	12466	1.55832845501	3
267	12565	1.55881845501	2
267	12579	1.558818606762	1
267	14772	4.509491593619	2
267	14926	4.509981593619	1
267	15213	4.510633082952	2
267	15353	4.511122826355	1
267	15477	4.51166323096	2
267	15652	4.51215323096	1
267	15778	4.512295737854	2
267	15860	4.512684205258	1
267	16007	4.513104402841	3
267	16148	4.513594402841	1
267	16240	4.513944698683	3
267	16387	4.514434698683	1
267	16448	4.514811656209	2
267	16615	4.515485490033	1
267	16650	4.515545684984	3
267	16719	4.516035684984	1
267	16779	4.516036047535	3
267	16861	4.516526047535	1
267	16941	4.516606370559	3
267	16987	4.517096370559	1
267	17076	4.517137063516	3
267	17163	4.517627063516	2
267	17176	4.517627358539	1
267	17253	4.517767464523	3
267	17300	4.518257464523	1
267	17364	4.518258093776	3
267	17439	4.518748093776	1
267	17519	4.518769299174	3
267	17589	4.519259299174	1
267	17645	4.519299814366	3
267	17700	4.519789814366	1
267	17783	4.519850417739	3
267	17828	4.520308417739	1
267	17894	4.520449807169	3
267	17976	4.520939807169	1
267	18038	4.521080025459	3
267	18106	4.521570025459	1
267	18161	4.521870025459	0
267	18208	4.522360025459	1
267	18301	4.522700760759	3
267	18350	4.523158760759	1
267	20216	4.638739490475	2
267	20269	4.639077758359	1
267	21875	4.749697745162	2
267	21935	4.757777477278	1
267	22056	4.758375748069	3
267	22157	4.766673748069	1
267	23467	4.851440688627	2
267	23521	4.859597649524	1
267	24942	5.043033511075	3
267	24991	5.051331511075	1
267	25560	5.143753511075	3
267	25609	5.152051511075	1
267	26178	5.243513511075	3
267	26227	5.251811511075	1
267	26796	5.344053511075	3
267	26845	5.352351511075	1
267	28818	5.844213511075	3
267	28867	5.852511511075	1
267	29672	6.043753511075	3
267	29721	6.052051511075	1
267	30484	6.244133511075	3
267	30533	6.252431511075	1
267	31102	6.344033511075	3
267	31151	6.352331511075	1
267	32656	6.743553511075	3
267	32705	6.751851511075	1
267	33468	6.943493511075	3
267	33517	6.951791511075	1
267	34128	7.043713511075	3
267	34177	7.052011511075	1
267	35642	7.443433511075	3
267	35691	7.451731511075	1
267	36962	7.742493511075	3
267	37011	7.750791511075	1
267	38204	8.143173511075	3
267	38253	8.151471511075	1
267	39019	8.343353511075	3
267	39069	8.351651511075	1
267	39638	8.443533511075	3
267	39687	8.451831511075	1
267	40258	8.542693511075	3
267	40307	8.550991511075	1
267	41578	8.842253511075	3
267	41627	8.850551511075	1
267	42730	9.143373511075	3
267	42779	9.151671511075	1
267	43348	9.242273511075	3
267	43397	9.250571511075	1
267	44866	9.644073511075	3
267	44915	9.652371511075	1
267	45694	9.842833511075	3
267	45743	9.851131511075	1
267	46564	10.043333511075	3
267	46613	10.051631511075	1
267	47480	10.242493511075	3
267	47529	10.250791511075	1
267	48806	10.543533511075	3
267	48855	10.551831511075	1
267	49618	10.743693511075	3
267	49667	10.751991511075	1
267	50236	10.842893511075	3
267	50285	10.851191511075	1
267	50854	10.943493511075	3
267	50903	10.951791511075	1
267	52022	11.143493511075	3
267	52071	11.151791511075	1
267	52640	11.244133511075	3
267	52689	11.252431511075	1
267	53452	11.443473511075	3
267	53501	11.451771511075	1
267	54070	11.542073511075	3
267	54119	11.550371511075	1
267	55196	11.743193511075	3
267	55245	11.751491511075	1
267	55814	11.843573511075	3
267	55863	11.851871511075	1
267	56432	11.943513511075	3
267	56481	11.951811511075	1
267	57089	12.042913511075	3
267	57138	12.051211511075	1
267	57707	12.143793511075	3
267	57756	12.152091511075	1
267	58329	12.243393511075	3
267	58378	12.251691511075	1
267	60390	12.743973511075	3
267	60439	12.752271511075	1
267	61008	12.843733511075	3
267	61057	12.852031511075	1
267	61905	13.044073511075	3
267	61954	13.052371511075	1
267	62523	13.143273511075	3
267	62572	13.151571511075	1
267	63141	13.243653511075	3
267	63190	13.251951511075	1
267	63759	13.343133511075	3
267	63808	13.351431511075	1
267	64377	13.443793511075	3
267	64426	13.452091511075	1
267	65582	13.643733511075	3
267	65631	13.652031511075	1
267	66902	13.943833511075	3
267	66951	13.952131511075	1
267	67562	14.043433511075	3
267	67611	14.051731511075	1
267	68478	14.243293511075	3
267	68527	14.251591511075	1
267	69290	14.443473511075	3
267	69339	14.451771511075	1
267	69908	14.543453511075	3
267	69957	14.551751511075	1
267	70526	14.643573511075	3
267	70575	14.651871511075	1
267	71532	14.943233511075	3
267	71581	14.951531511075	1
267	72192	15.043693511075	3
267	72241	15.051991511075	1
267	72810	15.143313511075	3
267	72859	15.151611511075	1
267	73428	15.243413511075	3
267	73477	15.251711511075	1
267	74046	15.343273511075	3
267	74095	15.351571511075	1
267	74664	15.442133511075	3
267	74714	15.450431511075	1
267	75288	15.543153511075	3
267	75337	15.551451511075	1
267	76100	15.743813511075	3
267	76149	15.752111511075	1
267	76718	15.843253511075	3
267	76767	15.851551511075	1
267	77336	15.943993511075	3
267	77385	15.952291511075	1
267	77996	16.042633511075	3
267	78045	16.050931511075	1
267	78912	16.242853511075	3
267	78961	16.251151511075	1
267	80038	16.443533511075	3
267	80087	16.451831511075	1
267	81813	16.743593511075	3
267	81862	16.751891511075	1
267	82431	16.843333511075	3
267	82480	16.851631511075	1
267	83049	16.942953511075	3
267	83098	16.951251511075	1
267	83709	17.043133511075	3
267	83758	17.051431511075	1
267	84327	17.143933511075	3
267	84376	17.152231511075	1
267	84945	17.243513511075	3
267	84994	17.251811511075	1
267	85563	17.343273511075	3
267	85612	17.351571511075	1
267	86181	17.444593511075	3
267	86230	17.452891511075	1
267	87187	17.743093511075	3
267	87236	17.751391511075	1
267	88429	18.143413511075	3
267	88478	18.151711511075	1
267	89555	18.343413511075	3
267	89604	18.351711511075	1
267	90177	18.443753511075	3
267	90226	18.452051511075	1
267	91379	18.843273511075	3
267	91428	18.851571511075	1
267	92233	19.043133511075	3
267	92282	19.051431511075	1
267	93045	19.243153511075	3
267	93094	19.251451511075	1
267	93663	19.343593511075	3
267	93712	19.351891511075	1
267	94579	19.543413511075	3
267	94628	19.551711511075	1
267	95508	19.744133511075	3
267	95557	19.752431511075	1
267	96133	19.842973511075	3
267	96182	19.851271511075	1
267	96760	19.943073511075	3
267	96810	19.951371511075	1
267	97427	20.043133511075	3
267	97476	20.051431511075	1
267	98045	20.143353511075	3
267	98094	20.151651511075	1
267	99370	20.442693511075	3
267	99419	20.450991511075	1
267	99989	20.543133511075	3
267	100038	20.551431511075	1
267	103037	21.444313511075	3
267	103086	21.452611511075	1
267	103849	21.643713511075	3
267	103898	21.652011511075	1
267	105705	22.042733511075	3
267	105768	22.051031511075	1
267	106338	22.143073511075	3
267	106387	22.151371511075	1
267	107529	22.542953511075	3
267	107592	22.551251511075	1
267	108967	22.842633511075	3
267	109016	22.850931511075	1
267	109571	22.943653511075	3
267	109634	22.951951511075	1
267	110245	23.042613511075	3
267	110294	23.050911511075	1
267	110863	23.143213511075	3
267	110912	23.151511511075	1
267	111481	23.244453511075	3
267	111530	23.252751511075	1
267	112099	23.343373511075	3
267	112148	23.351671511075	1
267	112717	23.443413511075	3
267	112766	23.451711511075	1
267	113529	23.643173511075	3
267	113578	23.651471511075	1
267	114147	23.743673511075	3
267	114196	23.751971511075	1
267	114765	23.842993511075	3
267	114814	23.851291511075	1
267	115383	23.943053511075	3
267	115432	23.951351511075	1
267	117139	24.443753511075	3
267	117188	24.452051511075	1
267	117951	24.643733511075	3
267	118000	24.652031511075	1
267	119507	25.042913511075	3
267	119556	25.051211511075	1
267	120125	25.143413511075	3
267	120174	25.151711511075	1
267	120937	25.343113511075	3
267	120986	25.351411511075	1
267	121746	25.543313511075	3
267	121795	25.551611511075	1
267	123066	25.843473511075	3
267	123115	25.851771511075	1
267	123688	25.943773511075	3
267	123737	25.952071511075	1
267	124348	26.043273511075	3
267	124397	26.051571511075	1
267	125162	26.243913511075	3
267	125211	26.252211511075	1
267	125780	26.343353511075	3
267	125829	26.351651511075	1
267	126592	26.542853511075	3
267	126641	26.551151511075	1
267	127210	26.643213511075	3
267	127259	26.651511511075	1
267	127828	26.742593511075	3
267	127877	26.750891511075	1
267	128446	26.843073511075	3
267	128495	26.851371511075	1
267	129300	27.042953511075	3
267	129349	27.051251511075	1
267	129918	27.144273511075	3
267	129967	27.152571511075	1
267	130730	27.342533511075	3
267	130779	27.350831511075	1
267	131348	27.442413511075	3
267	131397	27.450711511075	1
267	132264	27.642693511075	3
267	132313	27.650991511075	1
267	133080	27.843413511075	3
267	133129	27.851711511075	1
267	133698	27.943953511075	3
267	133747	27.952251511075	1
267	135344	28.443493511075	3
267	135393	28.451791511075	1
267	136350	28.743193511075	3
267	136399	28.751491511075	1
267	136965	28.842953511075	3
267	137014	28.851251511075	1
267	137583	28.943993511075	3
267	137632	28.952291511075	1
267	138243	29.043413511075	3
267	138292	29.051711511075	1
267	139369	29.243133511075	3
267	139418	29.251431511075	1
267	140689	29.543273511075	3
267	140738	29.551571511075	1
267	142208	29.943273511075	3
267	142257	29.951571511075	1
267	143869	30.342873511075	3
267	143918	30.351171511075	1
267	144681	30.543233511075	3
267	144730	30.551531511075	1
267	145493	30.743593511075	3
267	145542	30.751891511075	1
267	146111	30.843193511075	3
267	146160	30.851491511075	1
267	147473	31.144173511075	3
267	147522	31.152471511075	1
267	149104	31.443173511075	3
267	149153	31.451471511075	1
267	149726	31.543633511075	3
267	149775	31.551931511075	1
267	150344	31.643133511075	3
267	150393	31.651431511075	1
267	150962	31.743493511075	3
267	151011	31.751791511075	1
267	151581	31.842733511075	3
267	151630	31.851031511075	1
267	152199	31.943253511075	3
267	152248	31.951551511075	1
267	152860	32.042933511075	3
267	152909	32.051231511075	1
267	153478	32.142713511075	3
267	153527	32.151011511075	1
267	154096	32.243233511075	3
267	154145	32.251531511075	1
267	155714	32.643313511075	3
267	155763	32.651611511075	1
267	156840	32.843513511075	3
267	156889	32.851811511075	1
267	157888	33.143453511075	3
267	157937	33.151751511075	1
267	158506	33.244093511075	3
267	158555	33.252391511075	1
267	159124	33.343953511075	3
267	159173	33.352251511075	1
267	160254	33.543393511075	3
267	160303	33.551691511075	1
267	161381	33.742893511075	3
267	161430	33.751191511075	1
267	161999	33.843773511075	3
267	162048	33.852071511075	1
267	162854	34.043033511075	3
267	162903	34.051331511075	1
267	163472	34.144153511075	3
267	163521	34.152451511075	1
267	164090	34.243973511075	3
267	164139	34.252271511075	1
267	164708	34.344013511075	3
267	164757	34.352311511075	1
267	165624	34.543353511075	3
267	165673	34.551651511075	1
267	166242	34.643373511075	3
267	166291	34.651671511075	1
267	168112	35.043073511075	3
267	168161	35.051371511075	1
267	168924	35.242933511075	3
267	168973	35.251231511075	1
267	169545	35.343293511075	3
267	169595	35.351591511075	1
267	170164	35.443473511075	3
267	170213	35.451771511075	1
267	170782	35.542853511075	3
267	170831	35.551151511075	1
267	171401	35.642793511075	3
267	171450	35.651091511075	1
267	172019	35.743853511075	3
267	172068	35.752151511075	1
267	173366	36.143973511075	3
267	173415	36.152271511075	1
267	174372	36.443673511075	3
267	174421	36.451971511075	1
267	174990	36.543353511075	3
267	175039	36.551651511075	1
267	175608	36.643893511075	3
267	175657	36.652191511075	1
267	176614	36.943413511075	3
267	176663	36.951711511075	1
267	178054	37.444293511075	3
267	178103	37.452591511075	1
267	178673	37.543433511075	3
267	178722	37.551731511075	1
267	179799	37.743233511075	3
267	179848	37.751531511075	1
267	180612	37.942833511075	3
267	180661	37.951131511075	1
267	181466	38.143953511075	3
267	181515	38.152251511075	1
267	182084	38.242573511075	3
267	182133	38.250871511075	1
267	183000	38.443453511075	3
267	183049	38.451751511075	1
267	183615	38.543113511075	3
267	183664	38.551411511075	1
267	184427	38.744013511075	3
267	184476	38.752311511075	1
267	185045	38.843253511075	3
267	185094	38.851551511075	1
267	185667	38.943633511075	3
267	185716	38.951931511075	1
267	187029	39.243273511075	3
267	187078	39.251571511075	1
267	188036	39.543053511075	3
267	188085	39.551351511075	1
267	189551	39.943573511075	3
267	189600	39.951871511075	1
267	191107	40.342473511075	3
267	191156	40.350771511075	1
267	191725	40.443393511075	3
267	191774	40.451691511075	1
267	192343	40.544173511075	3
267	192392	40.552471511075	1
267	192961	40.643633511075	3
267	193010	40.651931511075	1
267	193775	40.843093511075	3
267	193825	40.851391511075	1
267	194395	40.942973511075	3
267	194444	40.951271511075	1
267	195249	41.142893511075	3
267	195298	41.151191511075	1
267	196764	41.542633511075	3
267	196813	41.550931511075	1
267	197771	41.843773511075	3
267	197820	41.852071511075	1
267	198939	42.043973511075	3
267	198988	42.052271511075	1
267	199945	42.343693511075	3
267	199994	42.351991511075	1
267	201454	42.743713511075	3
267	201503	42.752011511075	1
267	203477	43.543573511075	3
267	203526	43.551871511075	1
267	204782	43.943593511075	3
267	204831	43.951891511075	1
267	205636	44.143293511075	3
267	205685	44.151591511075	1
267	206254	44.243913511075	3
267	206303	44.252211511075	1
267	206872	44.343793511075	3
267	206921	44.352091511075	1
267	207681	44.543653511075	3
267	207730	44.551951511075	1
267	208601	44.743313511075	3
267	208650	44.751611511075	1
267	209219	44.842893511075	3
267	209268	44.851191511075	1
267	209834	44.943233511075	3
267	209883	44.951531511075	1
267	210494	45.043313511075	3
267	210543	45.051611511075	1
267	211307	45.243853511075	3
267	211356	45.252151511075	1
267	213418	45.843373511075	3
267	213467	45.851671511075	1
267	214466	46.143533511075	3
267	214515	46.151831511075	1
267	215084	46.243813511075	3
267	215133	46.252111511075	1
267	216090	46.543413511075	3
267	216139	46.551711511075	1
267	216708	46.643493511075	3
267	216757	46.651791511075	1
267	218583	47.043553511075	3
267	218632	47.051851511075	1
267	219201	47.142493511075	3
267	219250	47.150791511075	1
267	220521	47.442853511075	3
267	220570	47.451151511075	1
267	221139	47.543353511075	3
267	221188	47.551651511075	1
267	221758	47.643393511075	3
267	221807	47.651691511075	1
267	222570	47.842553511075	3
267	222619	47.850851511075	1
267	223188	47.943513511075	3
267	223237	47.951811511075	1
267	224042	48.142913511075	3
267	224091	48.151211511075	1
267	224660	48.243313511075	3
267	224709	48.251611511075	1
267	225278	48.342493511075	3
267	225327	48.350791511075	1
267	226194	48.543013511075	3
267	226243	48.551311511075	1
267	227007	48.743533511075	3
267	227056	48.751831511075	1
267	228474	49.043073511075	3
267	228523	49.051371511075	1
267	229466	49.343153511075	3
267	229529	49.351451511075	1
267	230098	49.443213511075	3
267	230147	49.451511511075	1
267	231419	49.743473511075	3
267	231468	49.751771511075	1
267	232231	49.942673511075	3
267	232280	49.950971511075	1
267	232891	50.043813511075	3
267	232940	50.052111511075	1
267	234017	50.243433511075	3
267	234066	50.251731511075	1
267	234635	50.342773511075	3
267	234684	50.351071511075	1
267	235253	50.443633511075	3
267	235302	50.451931511075	1
267	235875	50.543273511075	3
267	235924	50.551571511075	1
267	236687	50.742853511075	3
267	236736	50.751151511075	1
267	237500	50.942613511075	3
267	237549	50.950911511075	1
267	238160	51.042913511075	3
267	238209	51.051211511075	1
267	238972	51.242793511075	3
267	239021	51.251091511075	1
267	240396	51.542953511075	3
267	240445	51.551251511075	1
267	241523	51.743273511075	3
267	241572	51.751571511075	1
267	242439	51.943473511075	3
267	242488	51.951771511075	1
267	243397	52.144013511075	3
267	243446	52.152311511075	1
267	244015	52.243893511075	3
267	244064	52.252191511075	1
267	244830	52.443253511075	3
267	244879	52.451551511075	1
267	245643	52.643733511075	3
267	245692	52.652031511075	1
267	246262	52.743493511075	3
267	246311	52.751791511075	1
267	246880	52.843713511075	3
267	246929	52.852011511075	1
267	247498	52.943253511075	3
267	247547	52.951551511075	1
267	248158	53.042913511075	3
267	248207	53.051211511075	1
267	249284	53.243013511075	3
267	249333	53.251311511075	1
267	250410	53.443193511075	3
267	250459	53.451491511075	1
267	251029	53.543353511075	3
267	251078	53.551651511075	1
267	252857	53.943233511075	3
267	252906	53.951531511075	1
267	253711	54.143693511075	3
267	253760	54.151991511075	1
267	254721	54.443273511075	3
267	254770	54.451571511075	1
267	255339	54.544093511075	3
267	255388	54.552391511075	1
267	256152	54.743453511075	3
267	256201	54.751751511075	1
267	256770	54.843133511075	3
267	256819	54.851431511075	1
267	257624	55.043353511075	3
267	257673	55.051651511075	1
267	258242	55.143993511075	3
267	258291	55.152291511075	1
267	258860	55.242813511075	3
267	258909	55.251111511075	1
267	259478	55.343553511075	3
267	259527	55.351851511075	1
267	260679	55.743753511075	3
267	260728	55.752051511075	1
267	261491	55.943453511075	3
267	261540	55.951751511075	1
267	263230	56.542473511075	3
267	263279	56.550771511075	1
267	263834	56.643153511075	3
267	263897	56.651451511075	1
267	264466	56.743153511075	3
267	264515	56.751451511075	1
267	265084	56.843933511075	3
267	265133	56.852231511075	1
267	265702	56.943693511075	3
267	265751	56.951991511075	1
267	267333	57.543553511075	3
267	267382	57.551851511075	1
267	267951	57.643313511075	3
267	268000	57.651611511075	1
267	268569	57.743513511075	3
267	268618	57.751811511075	1
267	269187	57.843653511075	3
267	269236	57.851951511075	1
267	270044	58.043633511075	3
267	270093	58.051931511075	1
267	271171	58.243173511075	3
267	271220	58.251471511075	1
267	271775	58.342893511075	3
267	271838	58.351191511075	1
267	272408	58.444133511075	3
267	272457	58.452431511075	1
267	273026	58.543553511075	3
267	273075	58.551851511075	1
267	273644	58.642413511075	3
267	273693	58.650711511075	1
267	274456	58.843693511075	3
267	274505	58.851991511075	1
267	275818	59.143733511075	3
267	275867	59.152031511075	1
267	276436	59.243893511075	3
267	276485	59.252191511075	1
267	277054	59.343093511075	3
267	277103	59.351391511075	1
267	277867	59.543313511075	3
267	277916	59.551611511075	1
267	278485	59.643073511075	3
267	278534	59.651371511075	1
267	279103	59.743153511075	3
267	279152	59.751451511075	1
267	279918	59.943193511075	3
267	279967	59.951491511075	1
268	11723	1.555475093727	1
268	11724	1.555475093727	2
268	11768	1.555965093727	1
268	11768	1.555965093727	0
268	18161	4.521870025459	1
268	18162	4.521870025459	2
268	18208	4.522360025459	1
268	18208	4.522360025459	0
