version 2
run host10_40pps-0-20161107-20:38:02-9548
attr configname host10_40pps
attr datetime 20161107-20:38:02
attr experiment host10_40pps
attr inifile omnetpp_10.ini
attr iterationvars ""
attr iterationvars2 $repetition=0
attr measurement ""
attr network arb_png.car_host_10
attr processid 9548
attr repetition 0
attr replication #0
attr resultdir results
attr runnumber 0
attr seedset 0
param **.aodv.activeRouteTimeout 2s
param *.configurator.addStaticRoutes false
param *.configurator.config "xml(\"<config><interface hosts='**' address='10.0.0.x' netmask='255.255.255.0'/><autoroute metric='errorRate'/></config>\")"
param *.configurator.optimizeRoutes true
param *.host*.**.bitrate 1Mbps
param *.host*.networkLayer.arpType "\"GlobalARP\""
param *.host*.routingTable.netmaskRoutes "\"\""
param *.host*.wlan[0].mac.maxQueueSize 15
param *.host*.wlan[0].mac.useAck false
param *.host*.wlan[0].macType "\"CsmaCaMac\""
param *.host*.wlan[0].radio.bandwidth 2MHz
param *.host*.wlan[0].radio.carrierFrequency 2GHz
param *.host*.wlan[0].radio.displayCommunicationRange true
param *.host*.wlan[0].radio.displayInterferenceRange true
param *.host*.wlan[0].radio.receiver.energyDetection -85dBm
param *.host*.wlan[0].radio.receiver.ignoreInterference false
param *.host*.wlan[0].radio.receiver.sensitivity -85dBm
param *.host*.wlan[0].radio.receiver.snirThreshold 4dB
param *.host*.wlan[0].radio.transmitter.communicationRange 200m
param *.host*.wlan[0].radio.transmitter.headerBitLength 0b
param *.host*.wlan[0].radio.transmitter.power 1.4mW
param *.host*.wlan[0].radio.transmitter.preambleDuration 10us
param *.host*.wlan[0].radioType "\"APSKScalarRadio\""
param *.host*.wlan[0].typename "\"WirelessNic\""
param *.hostA.numUdpApps 1
param *.hostA.udpApp[0].destAddresses "\"hostD\""
param *.hostA.udpApp[0].destPort 5000
param *.hostA.udpApp[0].messageLength 1000B
param *.hostA.udpApp[0].packetName "\"Data\""
param *.hostA.udpApp[0].sendInterval 25ms
param *.hostA.udpApp[0].typename "\"UDPBasicApp\""
param *.hostD.numUdpApps 1
param *.hostD.udpApp[0].localPort 5000
param *.hostD.udpApp[0].typename "\"UDPSink\""
param *.hostType "\"AODVRouter\""
param *.mediumType "\"APSKScalarRadioMedium\""
param *.radioMedium.backgroundNoise.power -90dBm
param *.radioMedium.mediumLimitCache.carrierFrequency 2GHz
param *.visualizer.dataLinkVisualizer.packetNameFilter "\"AODV*\""
param *.visualizer.mediumVisualizer.signalPropagationUpdateInterval 100ns
param *.visualizer.mobilityVisualizer.displayMovementTrail true
param *.visualizer.networkRouteVisualizer.packetNameFilter "\"UDPData*\""
param *.visualizer.sceneVisualizer.descriptionFigure "\"title\""

vector 190  car_host_10.hostA.wlan[0].radio  radioMode:vector  ETV
attr interpolationmode  sample-hold
attr source  radioModeChanged
attr title  "Radio mode, vector"
vector 204  car_host_10.hostD.wlan[0].radio  radioMode:vector  ETV
attr interpolationmode  sample-hold
attr source  radioModeChanged
attr title  "Radio mode, vector"
vector 210  car_host_10.hostB.wlan[0].radio  radioMode:vector  ETV
attr interpolationmode  sample-hold
attr source  radioModeChanged
attr title  "Radio mode, vector"
vector 216  car_host_10.hostC.wlan[0].radio  radioMode:vector  ETV
attr interpolationmode  sample-hold
attr source  radioModeChanged
attr title  "Radio mode, vector"
vector 222  car_host_10.hostB1.wlan[0].radio  radioMode:vector  ETV
attr interpolationmode  sample-hold
attr source  radioModeChanged
attr title  "Radio mode, vector"
vector 228  car_host_10.hostB2.wlan[0].radio  radioMode:vector  ETV
attr interpolationmode  sample-hold
attr source  radioModeChanged
attr title  "Radio mode, vector"
vector 234  car_host_10.hostB3.wlan[0].radio  radioMode:vector  ETV
attr interpolationmode  sample-hold
attr source  radioModeChanged
attr title  "Radio mode, vector"
vector 240  car_host_10.hostB4.wlan[0].radio  radioMode:vector  ETV
attr interpolationmode  sample-hold
attr source  radioModeChanged
attr title  "Radio mode, vector"
vector 246  car_host_10.hostC1.wlan[0].radio  radioMode:vector  ETV
attr interpolationmode  sample-hold
attr source  radioModeChanged
attr title  "Radio mode, vector"
vector 252  car_host_10.hostC2.wlan[0].radio  radioMode:vector  ETV
attr interpolationmode  sample-hold
attr source  radioModeChanged
attr title  "Radio mode, vector"
vector 258  car_host_10.hostC3.wlan[0].radio  radioMode:vector  ETV
attr interpolationmode  sample-hold
attr source  radioModeChanged
attr title  "Radio mode, vector"
vector 264  car_host_10.hostC4.wlan[0].radio  radioMode:vector  ETV
attr interpolationmode  sample-hold
attr source  radioModeChanged
attr title  "Radio mode, vector"
vector 191  car_host_10.hostA.wlan[0].radio  receptionState:vector  ETV
attr interpolationmode  sample-hold
attr source  receptionStateChanged
attr title  "Radio reception state, vector"
vector 205  car_host_10.hostD.wlan[0].radio  receptionState:vector  ETV
attr interpolationmode  sample-hold
attr source  receptionStateChanged
attr title  "Radio reception state, vector"
vector 211  car_host_10.hostB.wlan[0].radio  receptionState:vector  ETV
attr interpolationmode  sample-hold
attr source  receptionStateChanged
attr title  "Radio reception state, vector"
vector 217  car_host_10.hostC.wlan[0].radio  receptionState:vector  ETV
attr interpolationmode  sample-hold
attr source  receptionStateChanged
attr title  "Radio reception state, vector"
vector 223  car_host_10.hostB1.wlan[0].radio  receptionState:vector  ETV
attr interpolationmode  sample-hold
attr source  receptionStateChanged
attr title  "Radio reception state, vector"
vector 229  car_host_10.hostB2.wlan[0].radio  receptionState:vector  ETV
attr interpolationmode  sample-hold
attr source  receptionStateChanged
attr title  "Radio reception state, vector"
vector 235  car_host_10.hostB3.wlan[0].radio  receptionState:vector  ETV
attr interpolationmode  sample-hold
attr source  receptionStateChanged
attr title  "Radio reception state, vector"
vector 241  car_host_10.hostB4.wlan[0].radio  receptionState:vector  ETV
attr interpolationmode  sample-hold
attr source  receptionStateChanged
attr title  "Radio reception state, vector"
vector 247  car_host_10.hostC1.wlan[0].radio  receptionState:vector  ETV
attr interpolationmode  sample-hold
attr source  receptionStateChanged
attr title  "Radio reception state, vector"
vector 253  car_host_10.hostC2.wlan[0].radio  receptionState:vector  ETV
attr interpolationmode  sample-hold
attr source  receptionStateChanged
attr title  "Radio reception state, vector"
vector 259  car_host_10.hostC3.wlan[0].radio  receptionState:vector  ETV
attr interpolationmode  sample-hold
attr source  receptionStateChanged
attr title  "Radio reception state, vector"
vector 265  car_host_10.hostC4.wlan[0].radio  receptionState:vector  ETV
attr interpolationmode  sample-hold
attr source  receptionStateChanged
attr title  "Radio reception state, vector"
vector 179  car_host_10.hostA.udpApp[0]  sentPk:vector(packetBytes)  ETV
attr interpolationmode  none
attr source  sentPk
attr title  "packets sent, vector(packetBytes)"
vector 182  car_host_10.hostA.udp  sentPk:vector(packetBytes)  ETV
attr interpolationmode  none
attr source  sentPk
attr title  "packets sent, vector(packetBytes)"
vector 192  car_host_10.hostA.wlan[0].radio  transmissionState:vector  ETV
attr interpolationmode  sample-hold
attr source  transmissionStateChanged
attr title  "Radio transmission state, vector"
vector 236  car_host_10.hostB3.wlan[0].radio  transmissionState:vector  ETV
attr interpolationmode  sample-hold
attr source  transmissionStateChanged
attr title  "Radio transmission state, vector"
vector 224  car_host_10.hostB1.wlan[0].radio  transmissionState:vector  ETV
attr interpolationmode  sample-hold
attr source  transmissionStateChanged
attr title  "Radio transmission state, vector"
vector 242  car_host_10.hostB4.wlan[0].radio  transmissionState:vector  ETV
attr interpolationmode  sample-hold
attr source  transmissionStateChanged
attr title  "Radio transmission state, vector"
vector 230  car_host_10.hostB2.wlan[0].radio  transmissionState:vector  ETV
attr interpolationmode  sample-hold
attr source  transmissionStateChanged
attr title  "Radio transmission state, vector"
vector 212  car_host_10.hostB.wlan[0].radio  transmissionState:vector  ETV
attr interpolationmode  sample-hold
attr source  transmissionStateChanged
attr title  "Radio transmission state, vector"
vector 218  car_host_10.hostC.wlan[0].radio  transmissionState:vector  ETV
attr interpolationmode  sample-hold
attr source  transmissionStateChanged
attr title  "Radio transmission state, vector"
vector 206  car_host_10.hostD.wlan[0].radio  transmissionState:vector  ETV
attr interpolationmode  sample-hold
attr source  transmissionStateChanged
attr title  "Radio transmission state, vector"
vector 260  car_host_10.hostC3.wlan[0].radio  transmissionState:vector  ETV
attr interpolationmode  sample-hold
attr source  transmissionStateChanged
attr title  "Radio transmission state, vector"
vector 254  car_host_10.hostC2.wlan[0].radio  transmissionState:vector  ETV
attr interpolationmode  sample-hold
attr source  transmissionStateChanged
attr title  "Radio transmission state, vector"
vector 266  car_host_10.hostC4.wlan[0].radio  transmissionState:vector  ETV
attr interpolationmode  sample-hold
attr source  transmissionStateChanged
attr title  "Radio transmission state, vector"
vector 248  car_host_10.hostC1.wlan[0].radio  transmissionState:vector  ETV
attr interpolationmode  sample-hold
attr source  transmissionStateChanged
attr title  "Radio transmission state, vector"
vector 197  car_host_10.hostD.udp  rcvdPk:vector(packetBytes)  ETV
attr interpolationmode  none
attr source  rcvdPk
attr title  "packets received, vector(packetBytes)"
vector 198  car_host_10.hostD.udp  passedUpPk:vector(count)  ETV
attr interpolationmode  none
attr title  "packets passed up, vector(count)"
vector 193  car_host_10.hostD.udpApp[0]  rcvdPk:vector(packetBytes)  ETV
attr interpolationmode  none
attr source  rcvdPk
attr title  "packets received, vector(packetBytes)"
vector 194  car_host_10.hostD.udpApp[0]  endToEndDelay:vector  ETV
attr interpolationmode  none
attr source  messageAge(rcvdPk)
attr title  "end-to-end delay, vector"
attr unit  s
vector 195  car_host_10.hostD.udpApp[0]  rcvdPkSeqNo:vector  ETV
attr interpolationmode  none
attr source  appPkSeqNo(rcvdPk)
attr title  "received packet sequence number, vector"
179	42	0.025	1000
179	215	0.05	1000
179	218	0.075	1000
179	221	0.1	1000
179	224	0.125	1000
179	227	0.15	1000
179	230	0.175	1000
179	233	0.2	1000
179	236	0.225	1000
179	239	0.25	1000
179	242	0.275	1000
179	245	0.3	1000
179	248	0.325	1000
179	267	0.35	1000
179	682	0.375	1000
179	685	0.4	1000
179	688	0.425	1000
179	691	0.45	1000
179	694	0.475	1000
179	697	0.5	1000
179	700	0.525	1000
179	703	0.55	1000
179	706	0.575	1000
179	709	0.6	1000
179	712	0.625	1000
179	715	0.65	1000
179	718	0.675	1000
179	721	0.7	1000
179	724	0.725	1000
179	727	0.75	1000
179	730	0.775	1000
179	733	0.8	1000
179	737	0.825	1000
179	1252	0.85	1000
179	1256	0.875	1000
179	1259	0.9	1000
179	1262	0.925	1000
179	1265	0.95	1000
179	1268	0.975	1000
179	1283	1	1000
179	1286	1.025	1000
179	1289	1.05	1000
179	1292	1.075	1000
179	1295	1.1	1000
179	1298	1.125	1000
179	1301	1.15	1000
179	1304	1.175	1000
179	1307	1.2	1000
179	1310	1.225	1000
179	1313	1.25	1000
179	1316	1.275	1000
179	1319	1.3	1000
179	1322	1.325	1000
179	1325	1.35	1000
179	1328	1.375	1000
179	1331	1.4	1000
179	1334	1.425	1000
179	1337	1.45	1000
179	1687	1.475	1000
179	2091	1.5	1000
179	2202	1.525	1000
179	2349	1.55	1000
179	2460	1.575	1000
179	2636	1.6	1000
179	2730	1.625	1000
179	2903	1.65	1000
179	3020	1.675	1000
179	3146	1.7	1000
179	3318	1.725	1000
179	3423	1.75	1000
179	3457	1.775	1000
179	3490	1.8	1000
179	3571	1.825	1000
179	3690	1.85	1000
179	3772	1.875	1000
179	3856	1.9	1000
179	3889	1.925	1000
179	3970	1.95	1000
179	4089	1.975	1000
179	4183	2	1000
179	4302	2.025	1000
179	4336	2.05	1000
179	4369	2.075	1000
179	4402	2.1	1000
179	4435	2.125	1000
179	4468	2.15	1000
179	4501	2.175	1000
179	4534	2.2	1000
179	4567	2.225	1000
179	4600	2.25	1000
179	4633	2.275	1000
179	4666	2.3	1000
179	4747	2.325	1000
179	4831	2.35	1000
179	4864	2.375	1000
179	4897	2.4	1000
179	4978	2.425	1000
179	5028	2.45	1000
179	5061	2.475	1000
179	5142	2.5	1000
179	5261	2.525	1000
179	5295	2.55	1000
179	5376	2.575	1000
179	5495	2.6	1000
179	5577	2.625	1000
179	5661	2.65	1000
179	5742	2.675	1000
179	5861	2.7	1000
179	5895	2.725	1000
179	5976	2.75	1000
179	6095	2.775	1000
179	6177	2.8	1000
179	6296	2.825	1000
179	6349	2.85	1000
179	6382	2.875	1000
179	6463	2.9	1000
179	6582	2.925	1000
179	6616	2.95	1000
179	6649	2.975	1000
179	6694	3	1000
179	6727	3.025	1000
179	6760	3.05	1000
179	6793	3.075	1000
179	6826	3.1	1000
179	6859	3.125	1000
179	6940	3.15	1000
179	7059	3.175	1000
179	7141	3.2	1000
179	7260	3.225	1000
179	7294	3.25	1000
179	7327	3.275	1000
179	7360	3.3	1000
179	7393	3.325	1000
179	7426	3.35	1000
179	7459	3.375	1000
179	7492	3.4	1000
179	7573	3.425	1000
179	7623	3.45	1000
179	7725	3.475	1000
179	7855	3.5	1000
179	7889	3.525	1000
179	7970	3.55	1000
179	8089	3.575	1000
179	8171	3.6	1000
179	8293	3.625	1000
179	8375	3.65	1000
179	8425	3.675	1000
179	8506	3.7	1000
179	8628	3.725	1000
179	8662	3.75	1000
179	8695	3.775	1000
179	8728	3.8	1000
179	8761	3.825	1000
179	8842	3.85	1000
179	8926	3.875	1000
179	9007	3.9	1000
179	9126	3.925	1000
179	9160	3.95	1000
179	9193	3.975	1000
179	9238	4	1000
179	9271	4.025	1000
179	9352	4.05	1000
179	9436	4.075	1000
179	9517	4.1	1000
179	9636	4.125	1000
179	9670	4.15	1000
179	9703	4.175	1000
179	9736	4.2	1000
179	9817	4.225	1000
179	9939	4.25	1000
179	9973	4.275	1000
179	10054	4.3	1000
179	10173	4.325	1000
179	10207	4.35	1000
179	10288	4.375	1000
179	10372	4.4	1000
179	10405	4.425	1000
179	10438	4.45	1000
179	10519	4.475	1000
179	10638	4.5	1000
179	10672	4.525	1000
179	10753	4.55	1000
179	10872	4.575	1000
179	10906	4.6	1000
179	10987	4.625	1000
179	11037	4.65	1000
179	11118	4.675	1000
179	11202	4.7	1000
179	11235	4.725	1000
179	11316	4.75	1000
179	11366	4.775	1000
179	11399	4.8	1000
179	11480	4.825	1000
179	11599	4.85	1000
179	11681	4.875	1000
179	11800	4.9	1000
179	11834	4.925	1000
179	11915	4.95	1000
179	12034	4.975	1000
179	12080	5	1000
179	12113	5.025	1000
179	12146	5.05	1000
179	12179	5.075	1000
179	12212	5.1	1000
179	12245	5.125	1000
179	12278	5.15	1000
179	12359	5.175	1000
179	12478	5.2	1000
179	12561	5.225	1000
179	12680	5.25	1000
179	12714	5.275	1000
179	12795	5.3	1000
179	12914	5.325	1000
179	12996	5.35	1000
179	13046	5.375	1000
179	13079	5.4	1000
179	13112	5.425	1000
179	13146	5.45	1000
179	13229	5.475	1000
179	13280	5.5	1000
179	13313	5.525	1000
179	13346	5.55	1000
179	13427	5.575	1000
179	13546	5.6	1000
179	13580	5.625	1000
179	13661	5.65	1000
179	13711	5.675	1000
179	13744	5.7	1000
179	13777	5.725	1000
179	13858	5.75	1000
179	13942	5.775	1000
179	13975	5.8	1000
179	14008	5.825	1000
179	14041	5.85	1000
179	14074	5.875	1000
179	14155	5.9	1000
179	14205	5.925	1000
179	14238	5.95	1000
179	14271	5.975	1000
179	14316	6	1000
179	14349	6.025	1000
179	14430	6.05	1000
179	14480	6.075	1000
179	14561	6.1	1000
179	14680	6.125	1000
179	14714	6.15	1000
179	14747	6.175	1000
179	14828	6.2	1000
179	14947	6.225	1000
179	14981	6.25	1000
179	15062	6.275	1000
179	15112	6.3	1000
179	15193	6.325	1000
179	15312	6.35	1000
179	15346	6.375	1000
179	15427	6.4	1000
179	15546	6.425	1000
179	15628	6.45	1000
179	15747	6.475	1000
179	15829	6.5	1000
179	15948	6.525	1000
179	15982	6.55	1000
179	16015	6.575	1000
179	16048	6.6	1000
179	16081	6.625	1000
179	16114	6.65	1000
179	16196	6.675	1000
179	16280	6.7	1000
179	16361	6.725	1000
179	16480	6.75	1000
179	16516	6.775	1000
179	16597	6.8	1000
179	16716	6.825	1000
179	16750	6.85	1000
179	16831	6.875	1000
179	16918	6.9	1000
179	16953	6.925	1000
179	16986	6.95	1000
179	17019	6.975	1000
179	17066	7	1000
179	17099	7.025	1000
179	17180	7.05	1000
179	17299	7.075	1000
179	17333	7.1	1000
179	17366	7.125	1000
179	17399	7.15	1000
179	17432	7.175	1000
179	17514	7.2	1000
179	17633	7.225	1000
179	17715	7.25	1000
179	17799	7.275	1000
179	17832	7.3	1000
179	17866	7.325	1000
179	17901	7.35	1000
179	17934	7.375	1000
179	17967	7.4	1000
179	18001	7.425	1000
179	18082	7.45	1000
179	18201	7.475	1000
179	18283	7.5	1000
179	18333	7.525	1000
179	18366	7.55	1000
179	18447	7.575	1000
179	18566	7.6	1000
179	18600	7.625	1000
179	18681	7.65	1000
179	18731	7.675	1000
179	18764	7.7	1000
179	18797	7.725	1000
179	18830	7.75	1000
179	18863	7.775	1000
179	18944	7.8	1000
179	19063	7.825	1000
179	19097	7.85	1000
179	19130	7.875	1000
179	19163	7.9	1000
179	19196	7.925	1000
179	19277	7.95	1000
179	19396	7.975	1000
179	19490	8	1000
179	19609	8.025	1000
179	19643	8.05	1000
179	19676	8.075	1000
179	19757	8.1	1000
179	19876	8.125	1000
179	19958	8.15	1000
179	20077	8.175	1000
179	20159	8.2	1000
179	20278	8.225	1000
179	20360	8.25	1000
179	20479	8.275	1000
179	20513	8.3	1000
179	20546	8.325	1000
179	20579	8.35	1000
179	20660	8.375	1000
179	20710	8.4	1000
179	20791	8.425	1000
179	20910	8.45	1000
179	20944	8.475	1000
179	20977	8.5	1000
179	21058	8.525	1000
179	21177	8.55	1000
179	21211	8.575	1000
179	21244	8.6	1000
179	21277	8.625	1000
179	21310	8.65	1000
179	21391	8.675	1000
179	21510	8.7	1000
179	21544	8.725	1000
179	21625	8.75	1000
179	21744	8.775	1000
179	21778	8.8	1000
179	21859	8.825	1000
179	21978	8.85	1000
179	22060	8.875	1000
179	22144	8.9	1000
179	22225	8.925	1000
179	22344	8.95	1000
179	22378	8.975	1000
179	22423	9	1000
179	22456	9.025	1000
179	22489	9.05	1000
179	22523	9.075	1000
179	22556	9.1	1000
179	22589	9.125	1000
179	22670	9.15	1000
179	22789	9.175	1000
179	22823	9.2	1000
179	22856	9.225	1000
179	22939	9.25	1000
179	23059	9.275	1000
179	23093	9.3	1000
179	23126	9.325	1000
179	23159	9.35	1000
179	23192	9.375	1000
179	23274	9.4	1000
179	23358	9.425	1000
179	23391	9.45	1000
179	23472	9.475	1000
179	23591	9.5	1000
179	23625	9.525	1000
179	23658	9.55	1000
179	23739	9.575	1000
179	23823	9.6	1000
179	23904	9.625	1000
179	23954	9.65	1000
179	24035	9.675	1000
179	24157	9.7	1000
179	24191	9.725	1000
179	24224	9.75	1000
179	24257	9.775	1000
179	24290	9.8	1000
179	24323	9.825	1000
179	24404	9.85	1000
179	24488	9.875	1000
179	24521	9.9	1000
179	24554	9.925	1000
179	24587	9.95	1000
179	24668	9.975	1000
179	24764	10	1000
179	24797	10.025	1000
179	24830	10.05	1000
179	24911	10.075	1000
179	25030	10.1	1000
179	25064	10.125	1000
179	25145	10.15	1000
179	25195	10.175	1000
179	25228	10.2	1000
179	25309	10.225	1000
179	25428	10.25	1000
179	25462	10.275	1000
179	25543	10.3	1000
179	25627	10.325	1000
179	25660	10.35	1000
179	25741	10.375	1000
179	25860	10.4	1000
179	25894	10.425	1000
179	25927	10.45	1000
179	25960	10.475	1000
179	26041	10.5	1000
179	26160	10.525	1000
179	26194	10.55	1000
179	26275	10.575	1000
179	26394	10.6	1000
179	26428	10.625	1000
179	26461	10.65	1000
179	26494	10.675	1000
179	26575	10.7	1000
179	26694	10.725	1000
179	26728	10.75	1000
179	26761	10.775	1000
179	26794	10.8	1000
179	26827	10.825	1000
179	26860	10.85	1000
179	26941	10.875	1000
179	27060	10.9	1000
179	27094	10.925	1000
179	27176	10.95	1000
179	27295	10.975	1000
179	27341	11	1000
179	27422	11.025	1000
179	27541	11.05	1000
179	27623	11.075	1000
179	27742	11.1	1000
179	27776	11.125	1000
179	27859	11.15	1000
179	27943	11.175	1000
179	27976	11.2	1000
179	28009	11.225	1000
179	28042	11.25	1000
179	28124	11.275	1000
179	28208	11.3	1000
179	28241	11.325	1000
179	28274	11.35	1000
179	28308	11.375	1000
179	28341	11.4	1000
179	28422	11.425	1000
179	28506	11.45	1000
179	28539	11.475	1000
179	28572	11.5	1000
179	28605	11.525	1000
179	28638	11.55	1000
179	28719	11.575	1000
179	28838	11.6	1000
179	28872	11.625	1000
179	28953	11.65	1000
179	29072	11.675	1000
179	29106	11.7	1000
179	29139	11.725	1000
179	29172	11.75	1000
179	29205	11.775	1000
179	29238	11.8	1000
179	29271	11.825	1000
179	29352	11.85	1000
179	29471	11.875	1000
179	29505	11.9	1000
179	29538	11.925	1000
179	29571	11.95	1000
179	29604	11.975	1000
179	29649	12	1000
179	29682	12.025	1000
179	29763	12.05	1000
179	29847	12.075	1000
179	29928	12.1	1000
179	30047	12.125	1000
179	30081	12.15	1000
179	30162	12.175	1000
179	30212	12.2	1000
179	30293	12.225	1000
179	30415	12.25	1000
179	30449	12.275	1000
179	30482	12.3	1000
179	30563	12.325	1000
179	30647	12.35	1000
179	30680	12.375	1000
179	30713	12.4	1000
179	30746	12.425	1000
179	30779	12.45	1000
179	30860	12.475	1000
179	30910	12.5	1000
179	30943	12.525	1000
179	31024	12.55	1000
179	31108	12.575	1000
179	31189	12.6	1000
179	31308	12.625	1000
179	31342	12.65	1000
179	31375	12.675	1000
179	31408	12.7	1000
179	31441	12.725	1000
179	31522	12.75	1000
179	31609	12.775	1000
179	31690	12.8	1000
179	31774	12.825	1000
179	31874	12.85	1000
179	31993	12.875	1000
179	32027	12.9	1000
179	32108	12.925	1000
179	32158	12.95	1000
179	32191	12.975	1000
179	32236	13	1000
179	32317	13.025	1000
179	32401	13.05	1000
179	32434	13.075	1000
179	32467	13.1	1000
179	32500	13.125	1000
179	32581	13.15	1000
179	32700	13.175	1000
179	32734	13.2	1000
179	32815	13.225	1000
179	32865	13.25	1000
179	32946	13.275	1000
179	33030	13.3	1000
179	33063	13.325	1000
179	33096	13.35	1000
179	33177	13.375	1000
179	33296	13.4	1000
179	33330	13.425	1000
179	33411	13.45	1000
179	33482	13.475	1000
179	33574	13.5	1000
179	33693	13.525	1000
179	33727	13.55	1000
179	33760	13.575	1000
179	33793	13.6	1000
179	33874	13.625	1000
179	33993	13.65	1000
179	34027	13.675	1000
179	34108	13.7	1000
179	34227	13.725	1000
179	34261	13.75	1000
179	34294	13.775	1000
179	34327	13.8	1000
179	34360	13.825	1000
179	34441	13.85	1000
179	34560	13.875	1000
179	34594	13.9	1000
179	34627	13.925	1000
179	34660	13.95	1000
179	34741	13.975	1000
179	34875	14	1000
179	34909	14.025	1000
179	34942	14.05	1000
179	35023	14.075	1000
179	35107	14.1	1000
179	35188	14.125	1000
179	35310	14.15	1000
179	35344	14.175	1000
179	35425	14.2	1000
179	35544	14.225	1000
179	35578	14.25	1000
179	35611	14.275	1000
179	35644	14.3	1000
179	35677	14.325	1000
179	35758	14.35	1000
179	35877	14.375	1000
179	35911	14.4	1000
179	35944	14.425	1000
179	35977	14.45	1000
179	36010	14.475	1000
179	36091	14.5	1000
179	36210	14.525	1000
179	36244	14.55	1000
179	36277	14.575	1000
179	36358	14.6	1000
179	36480	14.625	1000
179	36514	14.65	1000
179	36547	14.675	1000
179	36580	14.7	1000
179	36613	14.725	1000
179	36694	14.75	1000
179	36778	14.775	1000
179	36811	14.8	1000
179	36844	14.825	1000
179	36925	14.85	1000
179	37044	14.875	1000
179	37078	14.9	1000
179	37111	14.925	1000
179	37192	14.95	1000
179	37276	14.975	1000
179	37321	15	1000
179	37354	15.025	1000
179	37387	15.05	1000
179	37468	15.075	1000
179	37587	15.1	1000
179	37669	15.125	1000
179	37788	15.15	1000
179	37822	15.175	1000
179	37903	15.2	1000
179	38022	15.225	1000
179	38104	15.25	1000
179	38223	15.275	1000
179	38257	15.3	1000
179	38290	15.325	1000
179	38371	15.35	1000
179	38421	15.375	1000
179	38504	15.4	1000
179	38623	15.425	1000
179	38708	15.45	1000
179	38827	15.475	1000
179	38861	15.5	1000
179	38894	15.525	1000
179	38927	15.55	1000
179	39008	15.575	1000
179	39127	15.6	1000
179	39161	15.625	1000
179	39242	15.65	1000
179	39361	15.675	1000
179	39443	15.7	1000
179	39527	15.725	1000
179	39560	15.75	1000
179	39593	15.775	1000
179	39626	15.8	1000
179	39659	15.825	1000
179	39692	15.85	1000
179	39725	15.875	1000
179	39758	15.9	1000
179	39791	15.925	1000
179	39824	15.95	1000
179	39905	15.975	1000
179	40036	16	1000
179	40070	16.025	1000
179	40151	16.05	1000
179	40201	16.075	1000
179	40234	16.1	1000
179	40267	16.125	1000
179	40300	16.15	1000
179	40333	16.175	1000
179	40366	16.2	1000
179	40447	16.225	1000
179	40566	16.25	1000
179	40648	16.275	1000
179	40770	16.3	1000
179	40852	16.325	1000
179	40971	16.35	1000
179	41005	16.375	1000
179	41038	16.4	1000
179	41119	16.425	1000
179	41203	16.45	1000
179	41284	16.475	1000
179	41403	16.5	1000
179	41485	16.525	1000
179	41604	16.55	1000
179	41686	16.575	1000
179	41805	16.6	1000
179	41887	16.625	1000
179	41937	16.65	1000
179	41971	16.675	1000
179	42004	16.7	1000
179	42085	16.725	1000
179	42207	16.75	1000
179	42243	16.775	1000
179	42324	16.8	1000
179	42443	16.825	1000
179	42477	16.85	1000
179	42558	16.875	1000
179	42677	16.9	1000
179	42713	16.925	1000
179	42746	16.95	1000
179	42827	16.975	1000
179	42960	17	1000
179	43042	17.025	1000
179	43092	17.05	1000
179	43125	17.075	1000
179	43158	17.1	1000
179	43191	17.125	1000
179	43224	17.15	1000
179	43257	17.175	1000
179	43290	17.2	1000
179	43323	17.225	1000
179	43356	17.25	1000
179	43391	17.275	1000
179	43472	17.3	1000
179	43556	17.325	1000
179	43589	17.35	1000
179	43670	17.375	1000
179	43789	17.4	1000
179	43824	17.425	1000
179	43859	17.45	1000
179	43892	17.475	1000
179	43973	17.5	1000
179	44092	17.525	1000
179	44174	17.55	1000
179	44293	17.575	1000
179	44327	17.6	1000
179	44360	17.625	1000
179	44441	17.65	1000
179	44560	17.675	1000
179	44594	17.7	1000
179	44675	17.725	1000
179	44794	17.75	1000
179	44828	17.775	1000
179	44861	17.8	1000
179	44942	17.825	1000
179	45026	17.85	1000
179	45107	17.875	1000
179	45226	17.9	1000
179	45308	17.925	1000
179	45427	17.95	1000
179	45509	17.975	1000
179	45640	18	1000
179	45674	18.025	1000
179	45707	18.05	1000
179	45788	18.075	1000
179	45838	18.1	1000
179	45919	18.125	1000
179	46038	18.15	1000
179	46072	18.175	1000
179	46105	18.2	1000
179	46186	18.225	1000
179	46305	18.25	1000
179	46387	18.275	1000
179	46437	18.3	1000
179	46518	18.325	1000
179	46637	18.35	1000
179	46719	18.375	1000
179	46838	18.4	1000
179	46872	18.425	1000
179	46953	18.45	1000
179	47003	18.475	1000
179	47084	18.5	1000
179	47203	18.525	1000
179	47237	18.55	1000
179	47270	18.575	1000
179	47303	18.6	1000
179	47384	18.625	1000
179	47503	18.65	1000
179	47537	18.675	1000
179	47570	18.7	1000
179	47651	18.725	1000
179	47770	18.75	1000
179	47804	18.775	1000
179	47837	18.8	1000
179	47918	18.825	1000
179	48040	18.85	1000
179	48074	18.875	1000
179	48107	18.9	1000
179	48188	18.925	1000
179	48307	18.95	1000
179	48341	18.975	1000
179	48388	19	1000
179	48469	19.025	1000
179	48519	19.05	1000
179	48552	19.075	1000
179	48585	19.1	1000
179	48618	19.125	1000
179	48651	19.15	1000
179	48684	19.175	1000
179	48717	19.2	1000
179	48798	19.225	1000
179	48882	19.25	1000
179	48915	19.275	1000
179	48948	19.3	1000
179	48981	19.325	1000
179	49014	19.35	1000
179	49049	19.375	1000
179	49131	19.4	1000
179	49250	19.425	1000
179	49284	19.45	1000
179	49317	19.475	1000
179	49350	19.5	1000
179	49383	19.525	1000
179	49416	19.55	1000
179	49449	19.575	1000
179	49482	19.6	1000
179	49515	19.625	1000
179	49596	19.65	1000
179	49715	19.675	1000
179	49749	19.7	1000
179	49782	19.725	1000
179	49815	19.75	1000
179	49848	19.775	1000
179	49881	19.8	1000
179	49914	19.825	1000
179	49995	19.85	1000
179	50079	19.875	1000
179	50112	19.9	1000
179	50193	19.925	1000
179	50312	19.95	1000
179	50394	19.975	1000
179	50528	20	1000
179	50610	20.025	1000
179	50660	20.05	1000
179	50741	20.075	1000
179	50791	20.1	1000
179	50872	20.125	1000
179	50991	20.15	1000
179	51025	20.175	1000
179	51058	20.2	1000
179	51091	20.225	1000
179	51124	20.25	1000
179	51205	20.275	1000
179	51324	20.3	1000
179	51358	20.325	1000
179	51439	20.35	1000
182	44	0.025	1008
182	216	0.05	1008
182	219	0.075	1008
182	222	0.1	1008
182	225	0.125	1008
182	228	0.15	1008
182	231	0.175	1008
182	234	0.2	1008
182	237	0.225	1008
182	240	0.25	1008
182	243	0.275	1008
182	246	0.3	1008
182	249	0.325	1008
182	268	0.35	1008
182	683	0.375	1008
182	686	0.4	1008
182	689	0.425	1008
182	692	0.45	1008
182	695	0.475	1008
182	698	0.5	1008
182	701	0.525	1008
182	704	0.55	1008
182	707	0.575	1008
182	710	0.6	1008
182	713	0.625	1008
182	716	0.65	1008
182	719	0.675	1008
182	722	0.7	1008
182	725	0.725	1008
182	728	0.75	1008
182	731	0.775	1008
182	734	0.8	1008
182	738	0.825	1008
182	1253	0.85	1008
182	1257	0.875	1008
182	1260	0.9	1008
182	1263	0.925	1008
182	1266	0.95	1008
182	1269	0.975	1008
182	1284	1	1008
182	1287	1.025	1008
182	1290	1.05	1008
182	1293	1.075	1008
182	1296	1.1	1008
182	1299	1.125	1008
182	1302	1.15	1008
182	1305	1.175	1008
182	1308	1.2	1008
182	1311	1.225	1008
182	1314	1.25	1008
182	1317	1.275	1008
182	1320	1.3	1008
182	1323	1.325	1008
182	1326	1.35	1008
182	1329	1.375	1008
182	1332	1.4	1008
182	1335	1.425	1008
182	1338	1.45	1008
182	1688	1.475	1008
182	2092	1.5	1008
182	2203	1.525	1008
182	2350	1.55	1008
182	2461	1.575	1008
182	2637	1.6	1008
182	2731	1.625	1008
182	2904	1.65	1008
182	3021	1.675	1008
182	3147	1.7	1008
182	3319	1.725	1008
182	3424	1.75	1008
182	3458	1.775	1008
182	3491	1.8	1008
182	3572	1.825	1008
182	3691	1.85	1008
182	3773	1.875	1008
182	3857	1.9	1008
182	3890	1.925	1008
182	3971	1.95	1008
182	4090	1.975	1008
182	4184	2	1008
182	4303	2.025	1008
182	4337	2.05	1008
182	4370	2.075	1008
182	4403	2.1	1008
182	4436	2.125	1008
182	4469	2.15	1008
182	4502	2.175	1008
182	4535	2.2	1008
182	4568	2.225	1008
182	4601	2.25	1008
182	4634	2.275	1008
182	4667	2.3	1008
182	4748	2.325	1008
182	4832	2.35	1008
182	4865	2.375	1008
182	4898	2.4	1008
182	4979	2.425	1008
182	5029	2.45	1008
182	5062	2.475	1008
182	5143	2.5	1008
182	5262	2.525	1008
182	5296	2.55	1008
182	5377	2.575	1008
182	5496	2.6	1008
182	5578	2.625	1008
182	5662	2.65	1008
182	5743	2.675	1008
182	5862	2.7	1008
182	5896	2.725	1008
182	5977	2.75	1008
182	6096	2.775	1008
182	6178	2.8	1008
182	6297	2.825	1008
182	6350	2.85	1008
182	6383	2.875	1008
182	6464	2.9	1008
182	6583	2.925	1008
182	6617	2.95	1008
182	6650	2.975	1008
182	6695	3	1008
182	6728	3.025	1008
182	6761	3.05	1008
182	6794	3.075	1008
182	6827	3.1	1008
182	6860	3.125	1008
182	6941	3.15	1008
182	7060	3.175	1008
182	7142	3.2	1008
182	7261	3.225	1008
182	7295	3.25	1008
182	7328	3.275	1008
182	7361	3.3	1008
182	7394	3.325	1008
182	7427	3.35	1008
182	7460	3.375	1008
182	7493	3.4	1008
182	7574	3.425	1008
182	7624	3.45	1008
182	7726	3.475	1008
182	7856	3.5	1008
182	7890	3.525	1008
182	7971	3.55	1008
182	8090	3.575	1008
182	8172	3.6	1008
182	8294	3.625	1008
182	8376	3.65	1008
182	8426	3.675	1008
182	8507	3.7	1008
182	8629	3.725	1008
182	8663	3.75	1008
182	8696	3.775	1008
182	8729	3.8	1008
182	8762	3.825	1008
182	8843	3.85	1008
182	8927	3.875	1008
182	9008	3.9	1008
182	9127	3.925	1008
182	9161	3.95	1008
182	9194	3.975	1008
182	9239	4	1008
182	9272	4.025	1008
182	9353	4.05	1008
182	9437	4.075	1008
182	9518	4.1	1008
182	9637	4.125	1008
182	9671	4.15	1008
182	9704	4.175	1008
182	9737	4.2	1008
182	9818	4.225	1008
182	9940	4.25	1008
182	9974	4.275	1008
182	10055	4.3	1008
182	10174	4.325	1008
182	10208	4.35	1008
182	10289	4.375	1008
182	10373	4.4	1008
182	10406	4.425	1008
182	10439	4.45	1008
182	10520	4.475	1008
182	10639	4.5	1008
182	10673	4.525	1008
182	10754	4.55	1008
182	10873	4.575	1008
182	10907	4.6	1008
182	10988	4.625	1008
182	11038	4.65	1008
182	11119	4.675	1008
182	11203	4.7	1008
182	11236	4.725	1008
182	11317	4.75	1008
182	11367	4.775	1008
182	11400	4.8	1008
182	11481	4.825	1008
182	11600	4.85	1008
182	11682	4.875	1008
182	11801	4.9	1008
182	11835	4.925	1008
182	11916	4.95	1008
182	12035	4.975	1008
182	12081	5	1008
182	12114	5.025	1008
182	12147	5.05	1008
182	12180	5.075	1008
182	12213	5.1	1008
182	12246	5.125	1008
182	12279	5.15	1008
182	12360	5.175	1008
182	12479	5.2	1008
182	12562	5.225	1008
182	12681	5.25	1008
182	12715	5.275	1008
182	12796	5.3	1008
182	12915	5.325	1008
182	12997	5.35	1008
182	13047	5.375	1008
182	13080	5.4	1008
182	13113	5.425	1008
182	13147	5.45	1008
182	13230	5.475	1008
182	13281	5.5	1008
182	13314	5.525	1008
182	13347	5.55	1008
182	13428	5.575	1008
182	13547	5.6	1008
182	13581	5.625	1008
182	13662	5.65	1008
182	13712	5.675	1008
182	13745	5.7	1008
182	13778	5.725	1008
182	13859	5.75	1008
182	13943	5.775	1008
182	13976	5.8	1008
182	14009	5.825	1008
182	14042	5.85	1008
182	14075	5.875	1008
182	14156	5.9	1008
182	14206	5.925	1008
182	14239	5.95	1008
182	14272	5.975	1008
182	14317	6	1008
182	14350	6.025	1008
182	14431	6.05	1008
182	14481	6.075	1008
182	14562	6.1	1008
182	14681	6.125	1008
182	14715	6.15	1008
182	14748	6.175	1008
182	14829	6.2	1008
182	14948	6.225	1008
182	14982	6.25	1008
182	15063	6.275	1008
182	15113	6.3	1008
182	15194	6.325	1008
182	15313	6.35	1008
182	15347	6.375	1008
182	15428	6.4	1008
182	15547	6.425	1008
182	15629	6.45	1008
182	15748	6.475	1008
182	15830	6.5	1008
182	15949	6.525	1008
182	15983	6.55	1008
182	16016	6.575	1008
182	16049	6.6	1008
182	16082	6.625	1008
182	16115	6.65	1008
182	16197	6.675	1008
182	16281	6.7	1008
182	16362	6.725	1008
182	16481	6.75	1008
182	16517	6.775	1008
182	16598	6.8	1008
182	16717	6.825	1008
182	16751	6.85	1008
182	16832	6.875	1008
182	16919	6.9	1008
182	16954	6.925	1008
182	16987	6.95	1008
182	17020	6.975	1008
182	17067	7	1008
182	17100	7.025	1008
182	17181	7.05	1008
182	17300	7.075	1008
182	17334	7.1	1008
182	17367	7.125	1008
182	17400	7.15	1008
182	17433	7.175	1008
182	17515	7.2	1008
182	17634	7.225	1008
182	17716	7.25	1008
182	17800	7.275	1008
182	17833	7.3	1008
182	17867	7.325	1008
182	17902	7.35	1008
182	17935	7.375	1008
182	17968	7.4	1008
182	18002	7.425	1008
182	18083	7.45	1008
182	18202	7.475	1008
182	18284	7.5	1008
182	18334	7.525	1008
182	18367	7.55	1008
182	18448	7.575	1008
182	18567	7.6	1008
182	18601	7.625	1008
182	18682	7.65	1008
182	18732	7.675	1008
182	18765	7.7	1008
182	18798	7.725	1008
182	18831	7.75	1008
182	18864	7.775	1008
182	18945	7.8	1008
182	19064	7.825	1008
182	19098	7.85	1008
182	19131	7.875	1008
182	19164	7.9	1008
182	19197	7.925	1008
182	19278	7.95	1008
182	19397	7.975	1008
182	19491	8	1008
182	19610	8.025	1008
182	19644	8.05	1008
182	19677	8.075	1008
182	19758	8.1	1008
182	19877	8.125	1008
182	19959	8.15	1008
182	20078	8.175	1008
182	20160	8.2	1008
182	20279	8.225	1008
182	20361	8.25	1008
182	20480	8.275	1008
182	20514	8.3	1008
182	20547	8.325	1008
182	20580	8.35	1008
182	20661	8.375	1008
182	20711	8.4	1008
182	20792	8.425	1008
182	20911	8.45	1008
182	20945	8.475	1008
182	20978	8.5	1008
182	21059	8.525	1008
182	21178	8.55	1008
182	21212	8.575	1008
182	21245	8.6	1008
182	21278	8.625	1008
182	21311	8.65	1008
182	21392	8.675	1008
182	21511	8.7	1008
182	21545	8.725	1008
182	21626	8.75	1008
182	21745	8.775	1008
182	21779	8.8	1008
182	21860	8.825	1008
182	21979	8.85	1008
182	22061	8.875	1008
182	22145	8.9	1008
182	22226	8.925	1008
182	22345	8.95	1008
182	22379	8.975	1008
182	22424	9	1008
182	22457	9.025	1008
182	22490	9.05	1008
182	22524	9.075	1008
182	22557	9.1	1008
182	22590	9.125	1008
182	22671	9.15	1008
182	22790	9.175	1008
182	22824	9.2	1008
182	22857	9.225	1008
182	22940	9.25	1008
182	23060	9.275	1008
182	23094	9.3	1008
182	23127	9.325	1008
182	23160	9.35	1008
182	23193	9.375	1008
182	23275	9.4	1008
182	23359	9.425	1008
182	23392	9.45	1008
182	23473	9.475	1008
182	23592	9.5	1008
182	23626	9.525	1008
182	23659	9.55	1008
182	23740	9.575	1008
182	23824	9.6	1008
182	23905	9.625	1008
182	23955	9.65	1008
182	24036	9.675	1008
182	24158	9.7	1008
182	24192	9.725	1008
182	24225	9.75	1008
182	24258	9.775	1008
182	24291	9.8	1008
182	24324	9.825	1008
182	24405	9.85	1008
182	24489	9.875	1008
182	24522	9.9	1008
182	24555	9.925	1008
182	24588	9.95	1008
182	24669	9.975	1008
182	24765	10	1008
182	24798	10.025	1008
182	24831	10.05	1008
182	24912	10.075	1008
182	25031	10.1	1008
182	25065	10.125	1008
182	25146	10.15	1008
182	25196	10.175	1008
182	25229	10.2	1008
182	25310	10.225	1008
182	25429	10.25	1008
182	25463	10.275	1008
182	25544	10.3	1008
182	25628	10.325	1008
182	25661	10.35	1008
182	25742	10.375	1008
182	25861	10.4	1008
182	25895	10.425	1008
182	25928	10.45	1008
182	25961	10.475	1008
182	26042	10.5	1008
182	26161	10.525	1008
182	26195	10.55	1008
182	26276	10.575	1008
182	26395	10.6	1008
182	26429	10.625	1008
182	26462	10.65	1008
182	26495	10.675	1008
182	26576	10.7	1008
182	26695	10.725	1008
182	26729	10.75	1008
182	26762	10.775	1008
182	26795	10.8	1008
182	26828	10.825	1008
182	26861	10.85	1008
182	26942	10.875	1008
182	27061	10.9	1008
182	27095	10.925	1008
182	27177	10.95	1008
182	27296	10.975	1008
182	27342	11	1008
182	27423	11.025	1008
182	27542	11.05	1008
182	27624	11.075	1008
182	27743	11.1	1008
182	27777	11.125	1008
182	27860	11.15	1008
182	27944	11.175	1008
182	27977	11.2	1008
182	28010	11.225	1008
182	28043	11.25	1008
182	28125	11.275	1008
182	28209	11.3	1008
182	28242	11.325	1008
182	28275	11.35	1008
182	28309	11.375	1008
182	28342	11.4	1008
182	28423	11.425	1008
182	28507	11.45	1008
182	28540	11.475	1008
182	28573	11.5	1008
182	28606	11.525	1008
182	28639	11.55	1008
182	28720	11.575	1008
182	28839	11.6	1008
182	28873	11.625	1008
182	28954	11.65	1008
182	29073	11.675	1008
182	29107	11.7	1008
182	29140	11.725	1008
182	29173	11.75	1008
182	29206	11.775	1008
182	29239	11.8	1008
182	29272	11.825	1008
182	29353	11.85	1008
182	29472	11.875	1008
182	29506	11.9	1008
182	29539	11.925	1008
182	29572	11.95	1008
182	29605	11.975	1008
182	29650	12	1008
182	29683	12.025	1008
182	29764	12.05	1008
182	29848	12.075	1008
182	29929	12.1	1008
182	30048	12.125	1008
182	30082	12.15	1008
182	30163	12.175	1008
182	30213	12.2	1008
182	30294	12.225	1008
182	30416	12.25	1008
182	30450	12.275	1008
182	30483	12.3	1008
182	30564	12.325	1008
182	30648	12.35	1008
182	30681	12.375	1008
182	30714	12.4	1008
182	30747	12.425	1008
182	30780	12.45	1008
182	30861	12.475	1008
182	30911	12.5	1008
182	30944	12.525	1008
182	31025	12.55	1008
182	31109	12.575	1008
182	31190	12.6	1008
182	31309	12.625	1008
182	31343	12.65	1008
182	31376	12.675	1008
182	31409	12.7	1008
182	31442	12.725	1008
182	31523	12.75	1008
182	31610	12.775	1008
182	31691	12.8	1008
182	31775	12.825	1008
182	31875	12.85	1008
182	31994	12.875	1008
182	32028	12.9	1008
182	32109	12.925	1008
182	32159	12.95	1008
182	32192	12.975	1008
182	32237	13	1008
182	32318	13.025	1008
182	32402	13.05	1008
182	32435	13.075	1008
182	32468	13.1	1008
182	32501	13.125	1008
182	32582	13.15	1008
182	32701	13.175	1008
182	32735	13.2	1008
182	32816	13.225	1008
182	32866	13.25	1008
182	32947	13.275	1008
182	33031	13.3	1008
182	33064	13.325	1008
182	33097	13.35	1008
182	33178	13.375	1008
182	33297	13.4	1008
182	33331	13.425	1008
182	33412	13.45	1008
182	33483	13.475	1008
182	33575	13.5	1008
182	33694	13.525	1008
182	33728	13.55	1008
182	33761	13.575	1008
182	33794	13.6	1008
182	33875	13.625	1008
182	33994	13.65	1008
182	34028	13.675	1008
182	34109	13.7	1008
182	34228	13.725	1008
182	34262	13.75	1008
182	34295	13.775	1008
182	34328	13.8	1008
182	34361	13.825	1008
182	34442	13.85	1008
182	34561	13.875	1008
182	34595	13.9	1008
182	34628	13.925	1008
182	34661	13.95	1008
182	34742	13.975	1008
182	34876	14	1008
182	34910	14.025	1008
182	34943	14.05	1008
182	35024	14.075	1008
182	35108	14.1	1008
182	35189	14.125	1008
182	35311	14.15	1008
182	35345	14.175	1008
182	35426	14.2	1008
182	35545	14.225	1008
182	35579	14.25	1008
182	35612	14.275	1008
182	35645	14.3	1008
182	35678	14.325	1008
182	35759	14.35	1008
182	35878	14.375	1008
182	35912	14.4	1008
182	35945	14.425	1008
182	35978	14.45	1008
182	36011	14.475	1008
182	36092	14.5	1008
182	36211	14.525	1008
182	36245	14.55	1008
182	36278	14.575	1008
182	36359	14.6	1008
182	36481	14.625	1008
182	36515	14.65	1008
182	36548	14.675	1008
182	36581	14.7	1008
182	36614	14.725	1008
182	36695	14.75	1008
182	36779	14.775	1008
182	36812	14.8	1008
182	36845	14.825	1008
182	36926	14.85	1008
182	37045	14.875	1008
182	37079	14.9	1008
182	37112	14.925	1008
182	37193	14.95	1008
182	37277	14.975	1008
182	37322	15	1008
182	37355	15.025	1008
182	37388	15.05	1008
182	37469	15.075	1008
182	37588	15.1	1008
182	37670	15.125	1008
182	37789	15.15	1008
182	37823	15.175	1008
182	37904	15.2	1008
182	38023	15.225	1008
182	38105	15.25	1008
182	38224	15.275	1008
182	38258	15.3	1008
182	38291	15.325	1008
182	38372	15.35	1008
182	38422	15.375	1008
182	38505	15.4	1008
182	38624	15.425	1008
182	38709	15.45	1008
182	38828	15.475	1008
182	38862	15.5	1008
182	38895	15.525	1008
182	38928	15.55	1008
182	39009	15.575	1008
182	39128	15.6	1008
182	39162	15.625	1008
182	39243	15.65	1008
182	39362	15.675	1008
182	39444	15.7	1008
182	39528	15.725	1008
182	39561	15.75	1008
182	39594	15.775	1008
182	39627	15.8	1008
182	39660	15.825	1008
182	39693	15.85	1008
182	39726	15.875	1008
182	39759	15.9	1008
182	39792	15.925	1008
182	39825	15.95	1008
182	39906	15.975	1008
182	40037	16	1008
182	40071	16.025	1008
182	40152	16.05	1008
182	40202	16.075	1008
182	40235	16.1	1008
182	40268	16.125	1008
182	40301	16.15	1008
182	40334	16.175	1008
182	40367	16.2	1008
182	40448	16.225	1008
182	40567	16.25	1008
182	40649	16.275	1008
182	40771	16.3	1008
182	40853	16.325	1008
182	40972	16.35	1008
182	41006	16.375	1008
182	41039	16.4	1008
182	41120	16.425	1008
182	41204	16.45	1008
182	41285	16.475	1008
182	41404	16.5	1008
182	41486	16.525	1008
182	41605	16.55	1008
182	41687	16.575	1008
182	41806	16.6	1008
182	41888	16.625	1008
182	41938	16.65	1008
182	41972	16.675	1008
182	42005	16.7	1008
182	42086	16.725	1008
182	42208	16.75	1008
182	42244	16.775	1008
182	42325	16.8	1008
182	42444	16.825	1008
182	42478	16.85	1008
182	42559	16.875	1008
182	42678	16.9	1008
182	42714	16.925	1008
182	42747	16.95	1008
182	42828	16.975	1008
182	42961	17	1008
182	43043	17.025	1008
182	43093	17.05	1008
182	43126	17.075	1008
182	43159	17.1	1008
182	43192	17.125	1008
182	43225	17.15	1008
182	43258	17.175	1008
182	43291	17.2	1008
182	43324	17.225	1008
182	43357	17.25	1008
182	43392	17.275	1008
182	43473	17.3	1008
182	43557	17.325	1008
182	43590	17.35	1008
182	43671	17.375	1008
182	43790	17.4	1008
182	43825	17.425	1008
182	43860	17.45	1008
182	43893	17.475	1008
182	43974	17.5	1008
182	44093	17.525	1008
182	44175	17.55	1008
182	44294	17.575	1008
182	44328	17.6	1008
182	44361	17.625	1008
182	44442	17.65	1008
182	44561	17.675	1008
182	44595	17.7	1008
182	44676	17.725	1008
182	44795	17.75	1008
182	44829	17.775	1008
182	44862	17.8	1008
182	44943	17.825	1008
182	45027	17.85	1008
182	45108	17.875	1008
182	45227	17.9	1008
182	45309	17.925	1008
182	45428	17.95	1008
182	45510	17.975	1008
182	45641	18	1008
182	45675	18.025	1008
182	45708	18.05	1008
182	45789	18.075	1008
182	45839	18.1	1008
182	45920	18.125	1008
182	46039	18.15	1008
182	46073	18.175	1008
182	46106	18.2	1008
182	46187	18.225	1008
182	46306	18.25	1008
182	46388	18.275	1008
182	46438	18.3	1008
182	46519	18.325	1008
182	46638	18.35	1008
182	46720	18.375	1008
182	46839	18.4	1008
182	46873	18.425	1008
182	46954	18.45	1008
182	47004	18.475	1008
182	47085	18.5	1008
182	47204	18.525	1008
182	47238	18.55	1008
182	47271	18.575	1008
182	47304	18.6	1008
182	47385	18.625	1008
182	47504	18.65	1008
182	47538	18.675	1008
182	47571	18.7	1008
182	47652	18.725	1008
182	47771	18.75	1008
182	47805	18.775	1008
182	47838	18.8	1008
182	47919	18.825	1008
182	48041	18.85	1008
182	48075	18.875	1008
182	48108	18.9	1008
182	48189	18.925	1008
182	48308	18.95	1008
182	48342	18.975	1008
182	48389	19	1008
182	48470	19.025	1008
182	48520	19.05	1008
182	48553	19.075	1008
182	48586	19.1	1008
182	48619	19.125	1008
182	48652	19.15	1008
182	48685	19.175	1008
182	48718	19.2	1008
182	48799	19.225	1008
182	48883	19.25	1008
182	48916	19.275	1008
182	48949	19.3	1008
182	48982	19.325	1008
182	49015	19.35	1008
182	49050	19.375	1008
182	49132	19.4	1008
182	49251	19.425	1008
182	49285	19.45	1008
182	49318	19.475	1008
182	49351	19.5	1008
182	49384	19.525	1008
182	49417	19.55	1008
182	49450	19.575	1008
182	49483	19.6	1008
182	49516	19.625	1008
182	49597	19.65	1008
182	49716	19.675	1008
182	49750	19.7	1008
182	49783	19.725	1008
182	49816	19.75	1008
182	49849	19.775	1008
182	49882	19.8	1008
182	49915	19.825	1008
182	49996	19.85	1008
182	50080	19.875	1008
182	50113	19.9	1008
182	50194	19.925	1008
182	50313	19.95	1008
182	50395	19.975	1008
182	50529	20	1008
182	50611	20.025	1008
182	50661	20.05	1008
182	50742	20.075	1008
182	50792	20.1	1008
182	50873	20.125	1008
182	50992	20.15	1008
182	51026	20.175	1008
182	51059	20.2	1008
182	51092	20.225	1008
182	51125	20.25	1008
182	51206	20.275	1008
182	51325	20.3	1008
182	51359	20.325	1008
182	51440	20.35	1008
190	0	0	0
190	0	0	2
190	48	0.026001753887	3
190	61	0.026491753887	2
190	254	0.349798740376	3
190	270	0.350288740376	2
190	742	0.829043305931	3
190	755	0.829533305931	2
190	1343	1.466611411639	3
190	1356	1.467101411639	2
190	2011	1.482804049115	3
190	2032	1.491102049115	2
190	2047	1.491162049115	3
190	2061	1.499460049115	2
190	2116	1.508179668207	3
190	2143	1.516477668207	2
190	2175	1.516817668207	3
190	2206	1.525115668207	2
190	2221	1.525215668207	3
190	2269	1.533513668207	2
190	2284	1.533653668207	3
190	2319	1.541951668207	2
190	2334	1.542071668207	3
190	2353	1.550369668207	2
190	2368	1.550589668207	3
190	2382	1.558887668207	2
190	2435	1.567867287299	3
190	2465	1.576165287299	2
190	2466	1.576165287299	3
190	2523	1.584463287299	2
190	2538	1.584543287299	3
190	2586	1.592841287299	2
190	2601	1.593321287299	3
190	2640	1.601619287299	2
190	2655	1.601999287299	3
190	2670	1.610297287299	2
190	2685	1.610757287299	3
190	2699	1.619055287299	2
190	2767	1.627974906391	3
190	2801	1.636272906391	2
190	2826	1.636792906391	3
190	2873	1.645090906391	2
190	2888	1.645250906391	3
190	2927	1.653548906391	2
190	2942	1.654108906391	3
190	2957	1.662406906391	2
190	2974	1.662606906391	3
190	2989	1.670904906391	2
190	3006	1.671284906391	3
190	3024	1.679582906391	2
190	3073	1.688302525483	3
190	3100	1.696600525483	2
190	3183	1.705779751927	3
190	3231	1.714077751927	2
190	3243	1.714337751927	3
190	3275	1.722635751927	2
190	3303	1.723135751927	3
190	3355	1.731433751927	2
190	3370	1.731753751927	3
190	3405	1.740051751927	2
190	3428	1.75034	3
190	3441	1.758638	2
190	3461	1.7754	3
190	3474	1.783698	2
190	3494	1.80054	3
190	3507	1.808838	2
190	3575	1.82544	3
190	3622	1.833738	2
190	3694	1.85032	3
190	3708	1.858618	2
190	3776	1.87556	3
190	3823	1.883858	2
190	3860	1.90006	3
190	3873	1.908358	2
190	3893	1.92534	3
190	3906	1.933638	2
190	3974	1.95056	3
190	4021	1.958858	2
190	4093	1.97544	3
190	4107	1.983738	2
190	4187	2	3
190	4234	2.008298	2
190	4306	2.02512	3
190	4320	2.033418	2
190	4340	2.05054	3
190	4353	2.058838	2
190	4373	2.07528	3
190	4386	2.083578	2
190	4406	2.10024	3
190	4419	2.108538	2
190	4439	2.12518	3
190	4452	2.133478	2
190	4472	2.15034	3
190	4485	2.158638	2
190	4505	2.1755	3
190	4518	2.183798	2
190	4538	2.2006	3
190	4551	2.208898	2
190	4571	2.2256	3
190	4584	2.233898	2
190	4604	2.25018	3
190	4617	2.258478	2
190	4637	2.27544	3
190	4650	2.283738	2
190	4670	2.30038	3
190	4683	2.308678	2
190	4751	2.32514	3
190	4798	2.333438	2
190	4835	2.35014	3
190	4848	2.358438	2
190	4868	2.37536	3
190	4881	2.383658	2
190	4901	2.40044	3
190	4914	2.408738	2
190	4982	2.42532	3
190	5014	2.433618	2
190	5032	2.4502	3
190	5045	2.458498	2
190	5065	2.47548	3
190	5078	2.483778	2
190	5146	2.50048	3
190	5193	2.508778	2
190	5265	2.52544	3
190	5279	2.533738	2
190	5299	2.55034	3
190	5312	2.558638	2
190	5380	2.5755	3
190	5427	2.583798	2
190	5499	2.60026	3
190	5513	2.608558	2
190	5581	2.62528	3
190	5628	2.633578	2
190	5665	2.65016	3
190	5678	2.658458	2
190	5746	2.67522	3
190	5793	2.683518	2
190	5865	2.7005	3
190	5879	2.708798	2
190	5899	2.72518	3
190	5912	2.733478	2
190	5980	2.7504	3
190	6027	2.758698	2
190	6099	2.77546	3
190	6113	2.783758	2
190	6181	2.80004	3
190	6228	2.808338	2
190	6300	2.825	3
190	6319	2.833298	2
190	6353	2.8505	3
190	6366	2.858798	2
190	6386	2.8756	3
190	6399	2.883898	2
190	6467	2.90024	3
190	6514	2.908538	2
190	6586	2.9254	3
190	6600	2.933698	2
190	6620	2.95026	3
190	6633	2.958558	2
190	6653	2.9753	3
190	6666	2.983598	2
190	6698	3.0001	3
190	6711	3.008398	2
190	6731	3.02558	3
190	6744	3.033878	2
190	6764	3.05036	3
190	6777	3.058658	2
190	6797	3.07538	3
190	6810	3.083678	2
190	6830	3.10038	3
190	6843	3.108678	2
190	6863	3.12522	3
190	6876	3.133518	2
190	6944	3.1506	3
190	6991	3.158898	2
190	7063	3.17534	3
190	7077	3.183638	2
190	7145	3.20014	3
190	7192	3.208438	2
190	7264	3.2254	3
190	7278	3.233698	2
190	7298	3.2503	3
190	7311	3.258598	2
190	7331	3.27506	3
190	7344	3.283358	2
190	7364	3.3004	3
190	7377	3.308698	2
190	7397	3.32548	3
190	7410	3.333778	2
190	7430	3.35018	3
190	7443	3.358478	2
190	7463	3.37528	3
190	7476	3.383578	2
190	7496	3.40014	3
190	7509	3.408438	2
190	7577	3.4253	3
190	7609	3.433598	2
190	7627	3.45028	3
190	7640	3.458578	2
190	7729	3.47508	3
190	7787	3.483378	2
190	7859	3.50012	3
190	7873	3.508418	2
190	7893	3.52562	3
190	7906	3.533918	2
190	7974	3.55018	3
190	8021	3.558478	2
190	8093	3.57506	3
190	8107	3.583358	2
190	8195	3.6005	3
190	8222	3.608798	2
190	8297	3.62522	3
190	8311	3.633518	2
190	8379	3.65042	3
190	8411	3.658718	2
190	8429	3.6751	3
190	8442	3.683398	2
190	8530	3.70034	3
190	8557	3.708638	2
190	8632	3.7253	3
190	8646	3.733598	2
190	8666	3.75052	3
190	8679	3.758818	2
190	8699	3.7754	3
190	8712	3.783698	2
190	8732	3.8003	3
190	8745	3.808598	2
190	8765	3.82528	3
190	8778	3.833578	2
190	8846	3.85012	3
190	8893	3.858418	2
190	8930	3.8755	3
190	8943	3.883798	2
190	9011	3.90058	3
190	9058	3.908878	2
190	9130	3.92558	3
190	9144	3.933878	2
190	9164	3.9505	3
190	9177	3.958798	2
190	9197	3.97558	3
190	9210	3.983878	2
190	9242	4.00032	3
190	9255	4.008618	2
190	9275	4.02554	3
190	9288	4.033838	2
190	9356	4.05042	3
190	9403	4.058718	2
190	9440	4.07528	3
190	9453	4.083578	2
190	9521	4.10032	3
190	9568	4.108618	2
190	9640	4.12544	3
190	9654	4.133738	2
190	9674	4.15038	3
190	9687	4.158678	2
190	9707	4.17526	3
190	9720	4.183558	2
190	9740	4.20012	3
190	9753	4.208418	2
190	9841	4.2255	3
190	9868	4.233798	2
190	9943	4.25022	3
190	9957	4.258518	2
190	9977	4.27558	3
190	9990	4.283878	2
190	10058	4.30034	3
190	10105	4.308638	2
190	10177	4.3252	3
190	10191	4.333498	2
190	10211	4.35042	3
190	10224	4.358718	2
190	10292	4.37532	3
190	10339	4.383618	2
190	10376	4.4006	3
190	10389	4.408898	2
190	10409	4.42514	3
190	10422	4.433438	2
190	10442	4.45	3
190	10455	4.458298	2
190	10523	4.47506	3
190	10570	4.483358	2
190	10642	4.50042	3
190	10656	4.508718	2
190	10676	4.52528	3
190	10689	4.533578	2
190	10757	4.55034	3
190	10804	4.558638	2
190	10876	4.5754	3
190	10890	4.583698	2
190	10910	4.6003	3
190	10923	4.608598	2
190	10991	4.62508	3
190	11023	4.633378	2
190	11041	4.65042	3
190	11054	4.658718	2
190	11122	4.67512	3
190	11169	4.683418	2
190	11206	4.70006	3
190	11219	4.708358	2
190	11239	4.72548	3
190	11252	4.733778	2
190	11320	4.75042	3
190	11352	4.758718	2
190	11370	4.77534	3
190	11383	4.783638	2
190	11403	4.80036	3
190	11416	4.808658	2
190	11484	4.82552	3
190	11531	4.833818	2
190	11603	4.8506	3
190	11617	4.858898	2
190	11685	4.87512	3
190	11732	4.883418	2
190	11804	4.90024	3
190	11818	4.908538	2
190	11838	4.9254	3
190	11851	4.933698	2
190	11919	4.95038	3
190	11966	4.958678	2
190	12038	4.97536	3
190	12052	4.983658	2
190	12084	5.00024	3
190	12097	5.008538	2
190	12117	5.0253	3
190	12130	5.033598	2
190	12150	5.0504	3
190	12163	5.058698	2
190	12183	5.075	3
190	12196	5.083298	2
190	12216	5.10024	3
190	12229	5.108538	2
190	12249	5.12554	3
190	12262	5.133838	2
190	12282	5.15054	3
190	12295	5.158838	2
190	12363	5.17502	3
190	12410	5.183318	2
190	12482	5.20002	3
190	12496	5.208318	2
190	12565	5.22508	3
190	12612	5.233378	2
190	12684	5.25042	3
190	12698	5.258718	2
190	12718	5.27514	3
190	12731	5.283438	2
190	12799	5.3003	3
190	12846	5.308598	2
190	12918	5.32534	3
190	12932	5.333638	2
190	13000	5.35026	3
190	13032	5.358558	2
190	13050	5.37512	3
190	13063	5.383418	2
190	13083	5.4002	3
190	13096	5.408498	2
190	13116	5.42508	3
190	13129	5.433378	2
190	13150	5.45058	3
190	13164	5.458878	2
190	13234	5.47536	3
190	13266	5.483658	2
190	13284	5.50054	3
190	13297	5.508838	2
190	13317	5.52532	3
190	13330	5.533618	2
190	13350	5.55016	3
190	13363	5.558458	2
190	13431	5.5755	3
190	13478	5.583798	2
190	13550	5.60018	3
190	13564	5.608478	2
190	13584	5.62524	3
190	13597	5.633538	2
190	13665	5.65028	3
190	13697	5.658578	2
190	13715	5.67504	3
190	13728	5.683338	2
190	13748	5.70032	3
190	13761	5.708618	2
190	13781	5.72544	3
190	13794	5.733738	2
190	13862	5.7503	3
190	13909	5.758598	2
190	13946	5.77506	3
190	13959	5.783358	2
190	13979	5.80062	3
190	13992	5.808918	2
190	14012	5.82554	3
190	14025	5.833838	2
190	14045	5.85026	3
190	14058	5.858558	2
190	14078	5.87526	3
190	14091	5.883558	2
190	14159	5.90028	3
190	14191	5.908578	2
190	14209	5.92512	3
190	14222	5.933418	2
190	14242	5.95058	3
190	14255	5.958878	2
190	14275	5.97562	3
190	14288	5.983918	2
190	14320	6.0004	3
190	14333	6.008698	2
190	14353	6.02558	3
190	14366	6.033878	2
190	14434	6.0505	3
190	14466	6.058798	2
190	14484	6.07538	3
190	14497	6.083678	2
190	14565	6.10056	3
190	14612	6.108858	2
190	14684	6.12514	3
190	14698	6.133438	2
190	14718	6.15004	3
190	14731	6.158338	2
190	14751	6.17506	3
190	14764	6.183358	2
190	14832	6.20042	3
190	14879	6.208718	2
190	14951	6.2251	3
190	14965	6.233398	2
190	14985	6.25018	3
190	14998	6.258478	2
190	15066	6.27512	3
190	15098	6.283418	2
190	15116	6.30004	3
190	15129	6.308338	2
190	15197	6.32502	3
190	15244	6.333318	2
190	15316	6.3505	3
190	15330	6.358798	2
190	15350	6.3756	3
190	15363	6.383898	2
190	15431	6.40006	3
190	15478	6.408358	2
190	15550	6.4252	3
190	15564	6.433498	2
190	15632	6.45036	3
190	15679	6.458658	2
190	15751	6.47502	3
190	15765	6.483318	2
190	15833	6.50006	3
190	15880	6.508358	2
190	15952	6.52514	3
190	15966	6.533438	2
190	15986	6.5506	3
190	15999	6.558898	2
190	16019	6.57502	3
190	16032	6.583318	2
190	16052	6.6005	3
190	16065	6.608798	2
190	16085	6.62536	3
190	16098	6.633658	2
190	16118	6.65022	3
190	16131	6.658518	2
190	16200	6.67504	3
190	16247	6.683338	2
190	16284	6.70038	3
190	16297	6.708678	2
190	16365	6.72538	3
190	16412	6.733678	2
190	16484	6.75048	3
190	16500	6.758778	2
190	16520	6.77538	3
190	16533	6.783678	2
190	16601	6.80036	3
190	16648	6.808658	2
190	16720	6.8255	3
190	16734	6.833798	2
190	16754	6.85	3
190	16767	6.858298	2
190	16855	6.87542	3
190	16882	6.883718	2
190	16922	6.90044	3
190	16937	6.908738	2
190	16957	6.9252	3
190	16970	6.933498	2
190	16990	6.95038	3
190	17003	6.958678	2
190	17023	6.97512	3
190	17036	6.983418	2
190	17070	7.00026	3
190	17083	7.008558	2
190	17103	7.02518	3
190	17116	7.033478	2
190	17184	7.05014	3
190	17231	7.058438	2
190	17303	7.07552	3
190	17317	7.083818	2
190	17337	7.1001	3
190	17350	7.108398	2
190	17370	7.1256	3
190	17383	7.133898	2
190	17403	7.15006	3
190	17416	7.158358	2
190	17436	7.17538	3
190	17449	7.183678	2
190	17518	7.20018	3
190	17565	7.208478	2
190	17637	7.2251	3
190	17651	7.233398	2
190	17719	7.25058	3
190	17766	7.258878	2
190	17803	7.27562	3
190	17816	7.283918	2
190	17836	7.30032	3
190	17850	7.308618	2
190	17870	7.32522	3
190	17883	7.333518	2
190	17905	7.35054	3
190	17918	7.358838	2
190	17938	7.37544	3
190	17951	7.383738	2
190	17971	7.40016	3
190	17984	7.408458	2
190	18005	7.4254	3
190	18018	7.433698	2
190	18086	7.45014	3
190	18133	7.458438	2
190	18205	7.4754	3
190	18219	7.483698	2
190	18287	7.50052	3
190	18319	7.508818	2
190	18337	7.52514	3
190	18350	7.533438	2
190	18370	7.55046	3
190	18383	7.558758	2
190	18451	7.5755	3
190	18498	7.583798	2
190	18570	7.6	3
190	18584	7.608298	2
190	18604	7.62514	3
190	18617	7.633438	2
190	18685	7.6501	3
190	18717	7.658398	2
190	18735	7.67524	3
190	18748	7.683538	2
190	18768	7.70058	3
190	18781	7.708878	2
190	18801	7.72538	3
190	18814	7.733678	2
190	18834	7.75058	3
190	18847	7.758878	2
190	18867	7.77508	3
190	18880	7.783378	2
190	18948	7.80044	3
190	18995	7.808738	2
190	19067	7.82508	3
190	19081	7.833378	2
190	19101	7.85044	3
190	19114	7.858738	2
190	19134	7.87524	3
190	19147	7.883538	2
190	19167	7.90058	3
190	19180	7.908878	2
190	19200	7.92558	3
190	19213	7.933878	2
190	19281	7.9503	3
190	19328	7.958598	2
190	19400	7.97552	3
190	19414	7.983818	2
190	19494	8.00058	3
190	19541	8.008878	2
190	19613	8.02544	3
190	19627	8.033738	2
190	19647	8.05012	3
190	19660	8.058418	2
190	19680	8.07506	3
190	19693	8.083358	2
190	19761	8.10016	3
190	19808	8.108458	2
190	19880	8.12514	3
190	19894	8.133438	2
190	19962	8.15012	3
190	20009	8.158418	2
190	20081	8.1754	3
190	20095	8.183698	2
190	20163	8.20012	3
190	20210	8.208418	2
190	20282	8.22524	3
190	20296	8.233538	2
190	20364	8.25006	3
190	20411	8.258358	2
190	20483	8.27562	3
190	20497	8.283918	2
190	20517	8.30052	3
190	20530	8.308818	2
190	20550	8.3256	3
190	20563	8.333898	2
190	20583	8.35052	3
190	20596	8.358818	2
190	20664	8.3754	3
190	20696	8.383698	2
190	20714	8.40046	3
190	20727	8.408758	2
190	20795	8.4256	3
190	20842	8.433898	2
190	20914	8.4504	3
190	20928	8.458698	2
190	20948	8.4752	3
190	20961	8.483498	2
190	20981	8.50062	3
190	20994	8.508918	2
190	21062	8.52522	3
190	21109	8.533518	2
190	21181	8.55054	3
190	21195	8.558838	2
190	21215	8.57552	3
190	21228	8.583818	2
190	21248	8.6002	3
190	21261	8.608498	2
190	21281	8.62556	3
190	21294	8.633858	2
190	21314	8.65006	3
190	21327	8.658358	2
190	21395	8.67512	3
190	21442	8.683418	2
190	21514	8.7001	3
190	21528	8.708398	2
190	21548	8.72544	3
190	21561	8.733738	2
190	21629	8.75034	3
190	21676	8.758638	2
190	21748	8.77526	3
190	21762	8.783558	2
190	21782	8.80038	3
190	21795	8.808678	2
190	21863	8.825	3
190	21910	8.833298	2
190	21982	8.85032	3
190	21996	8.858618	2
190	22064	8.87538	3
190	22111	8.883678	2
190	22148	8.90024	3
190	22161	8.908538	2
190	22229	8.9254	3
190	22276	8.933698	2
190	22348	8.95054	3
190	22362	8.958838	2
190	22382	8.97542	3
190	22395	8.983718	2
190	22427	9.00034	3
190	22440	9.008638	2
190	22460	9.0253	3
190	22473	9.033598	2
190	22493	9.05052	3
190	22506	9.058818	2
190	22527	9.0751	3
190	22540	9.083398	2
190	22560	9.10032	3
190	22573	9.108618	2
190	22593	9.12562	3
190	22606	9.133918	2
190	22674	9.15034	3
190	22721	9.158638	2
190	22793	9.17526	3
190	22807	9.183558	2
190	22827	9.20054	3
190	22840	9.208838	2
190	22860	9.22518	3
190	22874	9.233478	2
190	22943	9.25052	3
190	22991	9.258818	2
190	23063	9.2753	3
190	23077	9.283598	2
190	23097	9.30014	3
190	23110	9.308438	2
190	23130	9.32512	3
190	23143	9.333418	2
190	23163	9.35028	3
190	23176	9.358578	2
190	23196	9.37534	3
190	23209	9.383638	2
190	23278	9.40046	3
190	23325	9.408758	2
190	23362	9.42508	3
190	23375	9.433378	2
190	23395	9.45036	3
190	23408	9.458658	2
190	23476	9.47518	3
190	23523	9.483478	2
190	23595	9.50024	3
190	23609	9.508538	2
190	23629	9.52524	3
190	23642	9.533538	2
190	23662	9.5505	3
190	23675	9.558798	2
190	23743	9.57514	3
190	23790	9.583438	2
190	23827	9.60032	3
190	23840	9.608618	2
190	23908	9.62516	3
190	23940	9.633458	2
190	23958	9.65004	3
190	23971	9.658338	2
190	24059	9.6755	3
190	24086	9.683798	2
190	24161	9.70006	3
190	24175	9.708358	2
190	24195	9.7252	3
190	24208	9.733498	2
190	24228	9.7502	3
190	24241	9.758498	2
190	24261	9.77532	3
190	24274	9.783618	2
190	24294	9.80038	3
190	24307	9.808678	2
190	24327	9.82506	3
190	24340	9.833358	2
190	24408	9.8504	3
190	24455	9.858698	2
190	24492	9.87508	3
190	24505	9.883378	2
190	24525	9.90036	3
190	24538	9.908658	2
190	24558	9.92526	3
190	24571	9.933558	2
190	24591	9.95016	3
190	24604	9.958458	2
190	24672	9.97514	3
190	24719	9.983438	2
190	24768	10.00014	3
190	24781	10.008438	2
190	24801	10.0252	3
190	24814	10.033498	2
190	24834	10.05018	3
190	24847	10.058478	2
190	24915	10.0753	3
190	24962	10.083598	2
190	25034	10.10044	3
190	25048	10.108738	2
190	25068	10.1256	3
190	25081	10.133898	2
190	25149	10.15038	3
190	25181	10.158678	2
190	25199	10.17532	3
190	25212	10.183618	2
190	25232	10.2004	3
190	25245	10.208698	2
190	25313	10.22516	3
190	25360	10.233458	2
190	25432	10.25	3
190	25446	10.258298	2
190	25466	10.2754	3
190	25479	10.283698	2
190	25547	10.30014	3
190	25594	10.308438	2
190	25631	10.32542	3
190	25644	10.333718	2
190	25664	10.35012	3
190	25677	10.358418	2
190	25745	10.3756	3
190	25792	10.383898	2
190	25864	10.4	3
190	25878	10.408298	2
190	25898	10.4253	3
190	25911	10.433598	2
190	25931	10.45016	3
190	25944	10.458458	2
190	25964	10.4753	3
190	25977	10.483598	2
190	26045	10.5004	3
190	26092	10.508698	2
190	26164	10.52558	3
190	26178	10.533878	2
190	26198	10.55004	3
190	26211	10.558338	2
190	26279	10.57512	3
190	26326	10.583418	2
190	26398	10.6004	3
190	26412	10.608698	2
190	26432	10.6255	3
190	26445	10.633798	2
190	26465	10.65046	3
190	26478	10.658758	2
190	26498	10.67552	3
190	26511	10.683818	2
190	26579	10.7005	3
190	26626	10.708798	2
190	26698	10.72524	3
190	26712	10.733538	2
190	26732	10.75056	3
190	26745	10.758858	2
190	26765	10.77542	3
190	26778	10.783718	2
190	26798	10.80018	3
190	26811	10.808478	2
190	26831	10.82552	3
190	26844	10.833818	2
190	26864	10.85058	3
190	26877	10.858878	2
190	26945	10.87506	3
190	26992	10.883358	2
190	27064	10.90018	3
190	27078	10.908478	2
190	27098	10.92508	3
190	27111	10.933378	2
190	27180	10.9504	3
190	27227	10.958698	2
190	27299	10.97562	3
190	27313	10.983918	2
190	27345	11.0002	3
190	27358	11.008498	2
190	27426	11.0255	3
190	27473	11.033798	2
190	27545	11.05004	3
190	27559	11.058338	2
190	27627	11.07506	3
190	27674	11.083358	2
190	27746	11.10022	3
190	27760	11.108518	2
190	27780	11.12522	3
190	27793	11.133518	2
190	27863	11.15004	3
190	27910	11.158338	2
190	27947	11.17512	3
190	27960	11.183418	2
190	27980	11.20004	3
190	27993	11.208338	2
190	28013	11.22552	3
190	28026	11.233818	2
190	28046	11.2505	3
190	28060	11.258798	2
190	28128	11.2755	3
190	28175	11.283798	2
190	28212	11.30006	3
190	28225	11.308358	2
190	28245	11.32546	3
190	28258	11.333758	2
190	28278	11.35042	3
190	28291	11.358718	2
190	28312	11.3755	3
190	28325	11.383798	2
190	28345	11.40016	3
190	28358	11.408458	2
190	28426	11.42516	3
190	28473	11.433458	2
190	28510	11.4503	3
190	28523	11.458598	2
190	28543	11.47536	3
190	28556	11.483658	2
190	28576	11.50042	3
190	28589	11.508718	2
190	28609	11.5252	3
190	28622	11.533498	2
190	28642	11.5502	3
190	28655	11.558498	2
190	28723	11.57528	3
190	28770	11.583578	2
190	28842	11.60062	3
190	28856	11.608918	2
190	28876	11.62502	3
190	28889	11.633318	2
190	28957	11.65006	3
190	29004	11.658358	2
190	29076	11.67544	3
190	29090	11.683738	2
190	29110	11.70014	3
190	29123	11.708438	2
190	29143	11.72528	3
190	29156	11.733578	2
190	29176	11.75046	3
190	29189	11.758758	2
190	29209	11.77538	3
190	29222	11.783678	2
190	29242	11.8003	3
190	29255	11.808598	2
190	29275	11.82534	3
190	29288	11.833638	2
190	29356	11.85026	3
190	29403	11.858558	2
190	29475	11.8752	3
190	29489	11.883498	2
190	29509	11.90024	3
190	29522	11.908538	2
190	29542	11.92524	3
190	29555	11.933538	2
190	29575	11.95048	3
190	29588	11.958778	2
190	29608	11.97528	3
190	29621	11.983578	2
190	29653	12.00038	3
190	29666	12.008678	2
190	29686	12.0256	3
190	29699	12.033898	2
190	29767	12.05014	3
190	29814	12.058438	2
190	29851	12.07548	3
190	29864	12.083778	2
190	29932	12.1003	3
190	29979	12.108598	2
190	30051	12.12522	3
190	30065	12.133518	2
190	30085	12.15014	3
190	30098	12.158438	2
190	30166	12.17526	3
190	30198	12.183558	2
190	30216	12.20024	3
190	30229	12.208538	2
190	30317	12.22558	3
190	30344	12.233878	2
190	30419	12.25016	3
190	30433	12.258458	2
190	30453	12.27528	3
190	30466	12.283578	2
190	30486	12.30014	3
190	30499	12.308438	2
190	30567	12.3253	3
190	30614	12.333598	2
190	30651	12.35018	3
190	30664	12.358478	2
190	30684	12.37542	3
190	30697	12.383718	2
190	30717	12.40052	3
190	30730	12.408818	2
190	30750	12.42504	3
190	30763	12.433338	2
190	30783	12.4505	3
190	30796	12.458798	2
190	30864	12.47504	3
190	30896	12.483338	2
190	30914	12.50018	3
190	30927	12.508478	2
190	30947	12.52534	3
190	30960	12.533638	2
190	31028	12.55	3
190	31075	12.558298	2
190	31112	12.57534	3
190	31125	12.583638	2
190	31193	12.60016	3
190	31240	12.608458	2
190	31312	12.62548	3
190	31326	12.633778	2
190	31346	12.65014	3
190	31359	12.658438	2
190	31379	12.67532	3
190	31392	12.683618	2
190	31412	12.70054	3
190	31425	12.708838	2
190	31445	12.72516	3
190	31458	12.733458	2
190	31546	12.75036	3
190	31573	12.758658	2
190	31613	12.775	3
190	31626	12.783298	2
190	31694	12.80004	3
190	31741	12.808338	2
190	31778	12.82524	3
190	31796	12.833538	2
190	31878	12.85036	3
190	31925	12.858658	2
190	31997	12.8755	3
190	32011	12.883798	2
190	32031	12.90062	3
190	32044	12.908918	2
190	32112	12.92552	3
190	32144	12.933818	2
190	32162	12.95024	3
190	32175	12.958538	2
190	32195	12.97532	3
190	32208	12.983618	2
190	32240	13.00056	3
190	32253	13.008858	2
190	32321	13.02544	3
190	32368	13.033738	2
190	32405	13.05046	3
190	32418	13.058758	2
190	32438	13.07544	3
190	32451	13.083738	2
190	32471	13.10004	3
190	32484	13.108338	2
190	32504	13.12556	3
190	32517	13.133858	2
190	32585	13.15034	3
190	32632	13.158638	2
190	32704	13.17508	3
190	32718	13.183378	2
190	32738	13.20042	3
190	32751	13.208718	2
190	32819	13.22514	3
190	32851	13.233438	2
190	32869	13.25044	3
190	32882	13.258738	2
190	32950	13.27538	3
190	32997	13.283678	2
190	33034	13.30022	3
190	33047	13.308518	2
190	33067	13.32546	3
190	33080	13.333758	2
190	33100	13.3505	3
190	33113	13.358798	2
190	33181	13.37526	3
190	33228	13.383558	2
190	33300	13.40032	3
190	33314	13.408618	2
190	33334	13.4253	3
190	33347	13.433598	2
190	33415	13.4505	3
190	33447	13.458798	2
190	33486	13.4754	3
190	33510	13.483698	2
190	33578	13.5004	3
190	33625	13.508698	2
190	33697	13.5255	3
190	33711	13.533798	2
190	33731	13.55056	3
190	33744	13.558858	2
190	33764	13.57504	3
190	33777	13.583338	2
190	33797	13.60042	3
190	33810	13.608718	2
190	33878	13.62548	3
190	33925	13.633778	2
190	33997	13.6503	3
190	34011	13.658598	2
190	34031	13.6752	3
190	34044	13.683498	2
190	34112	13.70022	3
190	34159	13.708518	2
190	34231	13.72562	3
190	34245	13.733918	2
190	34265	13.75008	3
190	34278	13.758378	2
190	34298	13.77542	3
190	34311	13.783718	2
190	34331	13.8	3
190	34344	13.808298	2
190	34364	13.82538	3
190	34377	13.833678	2
190	34445	13.8506	3
190	34492	13.858898	2
190	34564	13.8755	3
190	34578	13.883798	2
190	34598	13.90028	3
190	34611	13.908578	2
190	34631	13.92514	3
190	34644	13.933438	2
190	34664	13.95002	3
190	34677	13.958318	2
190	34765	13.97548	3
190	34792	13.983778	2
190	34879	14.00006	3
190	34893	14.008358	2
190	34913	14.02528	3
190	34926	14.033578	2
190	34946	14.05014	3
190	34959	14.058438	2
190	35027	14.0756	3
190	35074	14.083898	2
190	35111	14.10012	3
190	35124	14.108418	2
190	35212	14.12528	3
190	35239	14.133578	2
190	35314	14.1502	3
190	35328	14.158498	2
190	35348	14.17536	3
190	35361	14.183658	2
190	35429	14.2002	3
190	35476	14.208498	2
190	35548	14.2253	3
190	35562	14.233598	2
190	35582	14.25008	3
190	35595	14.258378	2
190	35615	14.27514	3
190	35628	14.283438	2
190	35648	14.30022	3
190	35661	14.308518	2
190	35681	14.3253	3
190	35694	14.333598	2
190	35762	14.35052	3
190	35809	14.358818	2
190	35881	14.37538	3
190	35895	14.383678	2
190	35915	14.40006	3
190	35928	14.408358	2
190	35948	14.4254	3
190	35961	14.433698	2
190	35981	14.45028	3
190	35994	14.458578	2
190	36014	14.47542	3
190	36027	14.483718	2
190	36095	14.50022	3
190	36142	14.508518	2
190	36214	14.5253	3
190	36228	14.533598	2
190	36248	14.55022	3
190	36261	14.558518	2
190	36281	14.5751	3
190	36294	14.583398	2
190	36382	14.60048	3
190	36409	14.608778	2
190	36484	14.62554	3
190	36498	14.633838	2
190	36518	14.65036	3
190	36531	14.658658	2
190	36551	14.67556	3
190	36564	14.683858	2
190	36584	14.70026	3
190	36597	14.708558	2
190	36617	14.72518	3
190	36630	14.733478	2
190	36698	14.7506	3
190	36745	14.758898	2
190	36782	14.77516	3
190	36795	14.783458	2
190	36815	14.8003	3
190	36828	14.808598	2
190	36848	14.82512	3
190	36861	14.833418	2
190	36929	14.85028	3
190	36976	14.858578	2
190	37048	14.87502	3
190	37062	14.883318	2
190	37082	14.90014	3
190	37095	14.908438	2
190	37115	14.92534	3
190	37128	14.933638	2
190	37196	14.95008	3
190	37243	14.958378	2
190	37280	14.97544	3
190	37293	14.983738	2
190	37325	15.00038	3
190	37338	15.008678	2
190	37358	15.0254	3
190	37371	15.033698	2
190	37391	15.05048	3
190	37404	15.058778	2
190	37472	15.07528	3
190	37519	15.083578	2
190	37591	15.10016	3
190	37605	15.108458	2
190	37673	15.12522	3
190	37720	15.133518	2
190	37792	15.1501	3
190	37806	15.158398	2
190	37826	15.17532	3
190	37839	15.183618	2
190	37907	15.20008	3
190	37954	15.208378	2
190	38026	15.22524	3
190	38040	15.233538	2
190	38108	15.25046	3
190	38155	15.258758	2
190	38227	15.2753	3
190	38241	15.283598	2
190	38261	15.30028	3
190	38274	15.308578	2
190	38294	15.32554	3
190	38307	15.333838	2
190	38375	15.3503	3
190	38407	15.358598	2
190	38425	15.37506	3
190	38439	15.383358	2
190	38508	15.4005	3
190	38555	15.408798	2
190	38627	15.42516	3
190	38641	15.433458	2
190	38712	15.45054	3
190	38759	15.458838	2
190	38831	15.4755	3
190	38845	15.483798	2
190	38865	15.50036	3
190	38878	15.508658	2
190	38898	15.52506	3
190	38911	15.533358	2
190	38931	15.55062	3
190	38944	15.558918	2
190	39012	15.57552	3
190	39059	15.583818	2
190	39131	15.60008	3
190	39145	15.608378	2
190	39165	15.62508	3
190	39178	15.633378	2
190	39246	15.6504	3
190	39293	15.658698	2
190	39365	15.67506	3
190	39379	15.683358	2
190	39447	15.7001	3
190	39494	15.708398	2
190	39531	15.7256	3
190	39544	15.733898	2
190	39564	15.75046	3
190	39577	15.758758	2
190	39597	15.77554	3
190	39610	15.783838	2
190	39630	15.80048	3
190	39643	15.808778	2
190	39663	15.82502	3
190	39676	15.833318	2
190	39696	15.85016	3
190	39709	15.858458	2
190	39729	15.87558	3
190	39742	15.883878	2
190	39762	15.90034	3
190	39775	15.908638	2
190	39795	15.9253	3
190	39808	15.933598	2
190	39828	15.9501	3
190	39841	15.958398	2
190	39909	15.9753	3
190	39956	15.983598	2
190	40040	16.00018	3
190	40054	16.008478	2
190	40074	16.025	3
190	40087	16.033298	2
190	40155	16.0502	3
190	40187	16.058498	2
190	40205	16.07534	3
190	40218	16.083638	2
190	40238	16.10018	3
190	40251	16.108478	2
190	40271	16.12548	3
190	40284	16.133778	2
190	40304	16.1501	3
190	40317	16.158398	2
190	40337	16.17538	3
190	40350	16.183678	2
190	40370	16.2005	3
190	40383	16.208798	2
190	40451	16.22514	3
190	40498	16.233438	2
190	40570	16.25004	3
190	40584	16.258338	2
190	40672	16.27552	3
190	40699	16.283818	2
190	40774	16.3002	3
190	40788	16.308498	2
190	40856	16.32558	3
190	40903	16.333878	2
190	40975	16.3505	3
190	40989	16.358798	2
190	41009	16.37514	3
190	41022	16.383438	2
190	41042	16.40008	3
190	41055	16.408378	2
190	41123	16.42542	3
190	41170	16.433718	2
190	41207	16.4506	3
190	41220	16.458898	2
190	41288	16.47562	3
190	41335	16.483918	2
190	41407	16.50038	3
190	41421	16.508678	2
190	41489	16.5251	3
190	41536	16.533398	2
190	41608	16.55044	3
190	41622	16.558738	2
190	41690	16.57556	3
190	41737	16.583858	2
190	41809	16.60048	3
190	41823	16.608778	2
190	41891	16.62526	3
190	41923	16.633558	2
190	41941	16.65004	3
190	41954	16.658338	2
190	41975	16.67502	3
190	41988	16.683318	2
190	42008	16.70002	3
190	42021	16.708318	2
190	42109	16.72562	3
190	42136	16.733918	2
190	42211	16.75056	3
190	42227	16.758858	2
190	42247	16.7751	3
190	42260	16.783398	2
190	42328	16.80044	3
190	42375	16.808738	2
190	42447	16.8254	3
190	42461	16.833698	2
190	42481	16.85018	3
190	42494	16.858478	2
190	42562	16.87526	3
190	42609	16.883558	2
190	42681	16.90056	3
190	42697	16.908858	2
190	42717	16.92522	3
190	42730	16.933518	2
190	42750	16.95048	3
190	42763	16.958778	2
190	42831	16.97532	3
190	42878	16.983618	2
190	42964	17.00006	3
190	42978	17.008358	2
190	43046	17.02542	3
190	43078	17.033718	2
190	43096	17.05054	3
190	43109	17.058838	2
190	43129	17.07522	3
190	43142	17.083518	2
190	43162	17.10026	3
190	43175	17.108558	2
190	43195	17.12536	3
190	43208	17.133658	2
190	43228	17.1502	3
190	43241	17.158498	2
190	43261	17.17526	3
190	43274	17.183558	2
190	43294	17.20056	3
190	43307	17.208858	2
190	43327	17.22562	3
190	43340	17.233918	2
190	43360	17.25052	3
190	43374	17.258818	2
190	43395	17.27538	3
190	43408	17.283678	2
190	43476	17.30012	3
190	43523	17.308418	2
190	43560	17.3251	3
190	43573	17.333398	2
190	43593	17.35048	3
190	43606	17.358778	2
190	43674	17.37524	3
190	43721	17.383538	2
190	43793	17.40018	3
190	43807	17.408478	2
190	43828	17.42506	3
190	43841	17.433358	2
190	43863	17.45048	3
190	43876	17.458778	2
190	43896	17.47542	3
190	43909	17.483718	2
190	43977	17.50004	3
190	44024	17.508338	2
190	44096	17.52518	3
190	44110	17.533478	2
190	44178	17.55016	3
190	44225	17.558458	2
190	44297	17.5752	3
190	44311	17.583498	2
190	44331	17.6003	3
190	44344	17.608598	2
190	44364	17.62532	3
190	44377	17.633618	2
190	44445	17.65022	3
190	44492	17.658518	2
190	44564	17.67538	3
190	44578	17.683678	2
190	44598	17.7	3
190	44611	17.708298	2
190	44679	17.72504	3
190	44726	17.733338	2
190	44798	17.7503	3
190	44812	17.758598	2
190	44832	17.77556	3
190	44845	17.783858	2
190	44865	17.8005	3
190	44878	17.808798	2
190	44946	17.8251	3
190	44993	17.833398	2
190	45030	17.85016	3
190	45043	17.858458	2
190	45111	17.8753	3
190	45158	17.883598	2
190	45230	17.90016	3
190	45244	17.908458	2
190	45312	17.92544	3
190	45359	17.933738	2
190	45431	17.95026	3
190	45445	17.958558	2
190	45513	17.97506	3
190	45560	17.983358	2
190	45644	18.00062	3
190	45658	18.008918	2
190	45678	18.02538	3
190	45691	18.033678	2
190	45711	18.0501	3
190	45724	18.058398	2
190	45792	18.07528	3
190	45824	18.083578	2
190	45842	18.10044	3
190	45855	18.108738	2
190	45923	18.12562	3
190	45970	18.133918	2
190	46042	18.15056	3
190	46056	18.158858	2
190	46076	18.17536	3
190	46089	18.183658	2
190	46109	18.20034	3
190	46122	18.208638	2
190	46190	18.22512	3
190	46237	18.233418	2
190	46309	18.25	3
190	46323	18.258298	2
190	46391	18.27502	3
190	46423	18.283318	2
190	46441	18.3002	3
190	46454	18.308498	2
190	46522	18.3252	3
190	46569	18.333498	2
190	46641	18.35046	3
190	46655	18.358758	2
190	46723	18.37534	3
190	46770	18.383638	2
190	46842	18.40014	3
190	46856	18.408438	2
190	46876	18.4251	3
190	46889	18.433398	2
190	46957	18.45036	3
190	46989	18.458658	2
190	47007	18.47514	3
190	47020	18.483438	2
190	47088	18.50052	3
190	47135	18.508818	2
190	47207	18.52554	3
190	47221	18.533838	2
190	47241	18.55026	3
190	47254	18.558558	2
190	47274	18.57506	3
190	47287	18.583358	2
190	47307	18.60036	3
190	47320	18.608658	2
190	47388	18.62516	3
190	47435	18.633458	2
190	47507	18.65056	3
190	47521	18.658858	2
190	47541	18.67506	3
190	47554	18.683358	2
190	47574	18.70028	3
190	47587	18.708578	2
190	47655	18.72558	3
190	47702	18.733878	2
190	47774	18.7501	3
190	47788	18.758398	2
190	47808	18.77556	3
190	47821	18.783858	2
190	47841	18.80026	3
190	47854	18.808558	2
190	47942	18.8255	3
190	47969	18.833798	2
190	48044	18.85038	3
190	48058	18.858678	2
190	48078	18.87502	3
190	48091	18.883318	2
190	48111	18.90052	3
190	48124	18.908818	2
190	48192	18.92522	3
190	48239	18.933518	2
190	48311	18.95	3
190	48325	18.958298	2
190	48345	18.97506	3
190	48359	18.983358	2
190	48392	19.00046	3
190	48405	19.008758	2
190	48473	19.02526	3
190	48505	19.033558	2
190	48523	19.0505	3
190	48536	19.058798	2
190	48556	19.07506	3
190	48569	19.083358	2
190	48589	19.10026	3
190	48602	19.108558	2
190	48622	19.12516	3
190	48635	19.133458	2
190	48655	19.15046	3
190	48668	19.158758	2
190	48688	19.1753	3
190	48701	19.183598	2
190	48721	19.20048	3
190	48734	19.208778	2
190	48802	19.22524	3
190	48849	19.233538	2
190	48886	19.25008	3
190	48899	19.258378	2
190	48919	19.27506	3
190	48932	19.283358	2
190	48952	19.30044	3
190	48965	19.308738	2
190	48985	19.32548	3
190	48998	19.333778	2
190	49018	19.35032	3
190	49031	19.358618	2
190	49053	19.3755	3
190	49066	19.383798	2
190	49135	19.40024	3
190	49182	19.408538	2
190	49254	19.425	3
190	49268	19.433298	2
190	49288	19.45056	3
190	49301	19.458858	2
190	49321	19.47526	3
190	49334	19.483558	2
190	49354	19.50044	3
190	49367	19.508738	2
190	49387	19.52532	3
190	49400	19.533618	2
190	49420	19.55032	3
190	49433	19.558618	2
190	49453	19.5753	3
190	49466	19.583598	2
190	49486	19.60044	3
190	49499	19.608738	2
190	49519	19.62524	3
190	49532	19.633538	2
190	49600	19.65012	3
190	49647	19.658418	2
190	49719	19.67538	3
190	49733	19.683678	2
190	49753	19.70012	3
190	49766	19.708418	2
190	49786	19.7252	3
190	49799	19.733498	2
190	49819	19.7502	3
190	49832	19.758498	2
190	49852	19.77506	3
190	49865	19.783358	2
190	49885	19.80034	3
190	49898	19.808638	2
190	49918	19.82544	3
190	49931	19.833738	2
190	49999	19.85016	3
190	50046	19.858458	2
190	50083	19.87524	3
190	50096	19.883538	2
190	50116	19.90056	3
190	50129	19.908858	2
190	50197	19.92546	3
190	50244	19.933758	2
190	50316	19.95	3
190	50330	19.958298	2
190	50431	19.9756	3
190	50465	19.983898	2
190	50532	20.00012	3
190	50546	20.008418	2
190	50614	20.02528	3
190	50646	20.033578	2
190	50664	20.05046	3
190	50677	20.058758	2
190	50745	20.0755	3
190	50777	20.083798	2
190	50795	20.10008	3
190	50808	20.108378	2
190	50876	20.1251	3
190	50923	20.133398	2
190	50995	20.15026	3
190	51009	20.158558	2
190	51029	20.17538	3
190	51042	20.183678	2
190	51062	20.20056	3
190	51075	20.208858	2
190	51095	20.22516	3
190	51108	20.233458	2
190	51128	20.25024	3
190	51141	20.258538	2
190	51209	20.27512	3
190	51256	20.283418	2
190	51328	20.30048	3
190	51342	20.308778	2
190	51362	20.32524	3
190	51375	20.333538	2
190	51443	20.35	3
190	51475	20.358298	2
191	0	0	1
191	48	0.026001753887	0
191	61	0.026491753887	1
191	91	0.029380769793	3
191	118	0.029870769793	1
191	133	0.03066884314	3
191	151	0.03115884314	1
191	173	0.031785630471	3
191	185	0.032275630471	1
191	254	0.349798740376	0
191	270	0.350288740376	1
191	295	0.352227064756	3
191	309	0.352717064756	1
191	339	0.352777720427	3
191	357	0.353267720427	1
191	429	0.354423306257	3
191	458	0.354913306257	1
191	742	0.829043305931	0
191	755	0.829533305931	1
191	782	0.830678713031	3
191	800	0.831168713031	1
191	827	0.832380869351	3
191	852	0.832870869351	1
191	910	0.834524407568	3
191	922	0.835014407568	1
191	1343	1.466611411639	0
191	1356	1.467101411639	1
191	1386	1.4675111562	3
191	1413	1.4680011562	1
191	1426	1.468992429831	3
191	1440	1.469482429831	1
191	1531	1.470293791127	3
191	1572	1.470783791127	2
191	1588	1.470784231024	1
191	1926	1.482026049115	3
191	1943	1.482484049115	1
191	2011	1.482804049115	0
191	2032	1.491102049115	1
191	2047	1.491162049115	0
191	2061	1.499460049115	1
191	2085	1.499521668207	3
191	2109	1.507819668207	1
191	2116	1.508179668207	0
191	2143	1.516477668207	1
191	2175	1.516817668207	0
191	2206	1.525115668207	1
191	2221	1.525215668207	0
191	2269	1.533513668207	1
191	2284	1.533653668207	0
191	2319	1.541951668207	1
191	2334	1.542071668207	0
191	2353	1.550369668207	1
191	2368	1.550589668207	0
191	2382	1.558887668207	1
191	2406	1.559389287299	3
191	2426	1.567687287299	1
191	2435	1.567867287299	0
191	2465	1.576165287299	1
191	2466	1.576165287299	0
191	2523	1.584463287299	1
191	2538	1.584543287299	0
191	2586	1.592841287299	1
191	2601	1.593321287299	0
191	2640	1.601619287299	1
191	2655	1.601999287299	0
191	2670	1.610297287299	1
191	2685	1.610757287299	0
191	2699	1.619055287299	1
191	2723	1.619276906391	3
191	2747	1.627574906391	1
191	2767	1.627974906391	0
191	2801	1.636272906391	1
191	2826	1.636792906391	0
191	2873	1.645090906391	1
191	2888	1.645250906391	0
191	2927	1.653548906391	1
191	2942	1.654108906391	0
191	2957	1.662406906391	1
191	2974	1.662606906391	0
191	2989	1.670904906391	1
191	3006	1.671284906391	0
191	3024	1.679582906391	1
191	3046	1.679804525483	3
191	3066	1.688102525483	1
191	3073	1.688302525483	0
191	3100	1.696600525483	1
191	3139	1.696981751927	3
191	3163	1.705279751927	1
191	3183	1.705779751927	0
191	3231	1.714077751927	1
191	3243	1.714337751927	0
191	3275	1.722635751927	1
191	3303	1.723135751927	0
191	3355	1.731433751927	1
191	3370	1.731753751927	0
191	3405	1.740051751927	1
191	3428	1.75034	0
191	3441	1.758638	1
191	3461	1.7754	0
191	3474	1.783698	1
191	3494	1.80054	0
191	3507	1.808838	1
191	3531	1.809259619092	3
191	3550	1.817557619092	1
191	3575	1.82544	0
191	3622	1.833738	1
191	3694	1.85032	0
191	3708	1.858618	1
191	3732	1.858779619092	3
191	3751	1.867077619092	1
191	3776	1.87556	0
191	3823	1.883858	1
191	3860	1.90006	0
191	3873	1.908358	1
191	3893	1.92534	0
191	3906	1.933638	1
191	3930	1.934159619092	3
191	3949	1.942457619092	1
191	3974	1.95056	0
191	4021	1.958858	1
191	4093	1.97544	0
191	4107	1.983738	1
191	4131	1.984159619092	3
191	4150	1.992457619092	1
191	4187	2	0
191	4234	2.008298	1
191	4306	2.02512	0
191	4320	2.033418	1
191	4340	2.05054	0
191	4353	2.058838	1
191	4373	2.07528	0
191	4386	2.083578	1
191	4406	2.10024	0
191	4419	2.108538	1
191	4439	2.12518	0
191	4452	2.133478	1
191	4472	2.15034	0
191	4485	2.158638	1
191	4505	2.1755	0
191	4518	2.183798	1
191	4538	2.2006	0
191	4551	2.208898	1
191	4571	2.2256	0
191	4584	2.233898	1
191	4604	2.25018	0
191	4617	2.258478	1
191	4637	2.27544	0
191	4650	2.283738	1
191	4670	2.30038	0
191	4683	2.308678	1
191	4707	2.309259619092	3
191	4726	2.317557619092	1
191	4751	2.32514	0
191	4798	2.333438	1
191	4835	2.35014	0
191	4848	2.358438	1
191	4868	2.37536	0
191	4881	2.383658	1
191	4901	2.40044	0
191	4914	2.408738	1
191	4938	2.409099619092	3
[...]
265	15662	6.450436552065	1
265	15672	6.451016657681	3
265	15704	6.459314657681	1
265	15714	6.459455052843	3
265	15728	6.467753052843	1
265	15843	6.500062047558	2
265	15863	6.500156552065	1
265	15873	6.500556657681	3
265	15905	6.508854657681	1
265	15915	6.509195052843	3
265	15929	6.517493052843	1
265	16210	6.675042047558	2
265	16230	6.675656552065	1
265	16240	6.675996657681	3
265	16270	6.684294657681	1
265	16375	6.725382047558	2
265	16395	6.725816552065	1
265	16405	6.726416657681	3
265	16437	6.734714657681	1
265	16447	6.734755052843	3
265	16461	6.743053052843	1
265	16611	6.800362047558	2
265	16631	6.801336552065	1
265	16641	6.801836657681	3
265	16673	6.810134657681	1
265	16683	6.810515052843	3
265	16698	6.818813052843	1
265	16875	6.875636657681	3
265	16908	6.883934657681	1
265	17194	7.050142047558	2
265	17214	7.051196552065	1
265	17224	7.051536657681	3
265	17256	7.059834657681	1
265	17266	7.060195052843	3
265	17281	7.068493052843	1
265	17528	7.200182047558	2
265	17548	7.201016552065	1
265	17558	7.201596657681	3
265	17590	7.209894657681	1
265	17600	7.210155052843	3
265	17614	7.218453052843	1
265	17729	7.250582047558	2
265	17749	7.250996552065	1
265	17759	7.251096657681	3
265	17789	7.259394657681	1
265	18096	7.450142047558	2
265	18116	7.450516552065	1
265	18126	7.450716657681	3
265	18158	7.459014657681	1
265	18168	7.459395052843	3
265	18182	7.467693052843	1
265	18297	7.500522047558	2
265	18315	7.500896552065	1
265	18461	7.575502047558	2
265	18481	7.575856552065	1
265	18491	7.576156657681	3
265	18523	7.584454657681	1
265	18533	7.584575052843	3
265	18547	7.592873052843	1
265	18695	7.650102047558	2
265	18713	7.650356552065	1
265	18958	7.800442047558	2
265	18978	7.800696552065	1
265	18988	7.800936657681	3
265	19020	7.809234657681	1
265	19030	7.809455052843	3
265	19044	7.817753052843	1
265	19291	7.950302047558	2
265	19311	7.950756552065	1
265	19321	7.951196657681	3
265	19353	7.959494657681	1
265	19363	7.959915052843	3
265	19377	7.968213052843	1
265	19504	8.000582047558	2
265	19524	8.000956552065	1
265	19534	8.001536657681	3
265	19566	8.009834657681	1
265	19576	8.009995052843	3
265	19590	8.018293052843	1
265	19771	8.100162047558	2
265	19791	8.100656552065	1
265	19801	8.100836657681	3
265	19833	8.109134657681	1
265	19843	8.109515052843	3
265	19857	8.117813052843	1
265	19972	8.150122047558	2
265	19992	8.150276552065	1
265	20002	8.150796657681	3
265	20034	8.159094657681	1
265	20044	8.159315052843	3
265	20058	8.167613052843	1
265	20173	8.200122047558	2
265	20193	8.200956552065	1
265	20203	8.200976657681	3
265	20235	8.209274657681	1
265	20245	8.209355052843	3
265	20259	8.217653052843	1
265	20374	8.250062047558	2
265	20394	8.250756552065	1
265	20404	8.250856657681	3
265	20436	8.259154657681	1
265	20446	8.259415052843	3
265	20460	8.267713052843	1
265	20674	8.375402047558	2
265	20692	8.376376552065	1
265	20805	8.425602047558	2
265	20825	8.425676552065	1
265	20835	8.426276657681	3
265	20867	8.434574657681	1
265	20877	8.435195052843	3
265	20891	8.443493052843	1
265	21072	8.525222047558	2
265	21092	8.525856552065	1
265	21102	8.526376657681	3
265	21134	8.534674657681	1
265	21144	8.534995052843	3
265	21158	8.543293052843	1
265	21405	8.675122047558	2
265	21425	8.675916552065	1
265	21435	8.675996657681	3
265	21467	8.684294657681	1
265	21477	8.684415052843	3
265	21491	8.692713052843	1
265	21639	8.750342047558	2
265	21659	8.750896552065	1
265	21669	8.750996657681	3
265	21701	8.759294657681	1
265	21711	8.759855052843	3
265	21725	8.768153052843	1
265	21873	8.825002047558	2
265	21893	8.825956552065	1
265	21903	8.826556657681	3
265	21935	8.834854657681	1
265	21945	8.835175052843	3
265	21960	8.843473052843	1
265	22074	8.875382047558	2
265	22094	8.875856552065	1
265	22104	8.876476657681	3
265	22134	8.884774657681	1
265	22239	8.925402047558	2
265	22259	8.925596552065	1
265	22269	8.925836657681	3
265	22301	8.934134657681	1
265	22311	8.934615052843	3
265	22325	8.942913052843	1
265	22684	9.150342047558	2
265	22704	9.151316552065	1
265	22714	9.151916657681	3
265	22746	9.160214657681	1
265	22756	9.160675052843	3
265	22771	9.168973052843	1
265	22953	9.250522047558	2
265	22973	9.250796552065	1
265	22984	9.251116657681	3
265	23016	9.259414657681	1
265	23026	9.259975052843	3
265	23040	9.268273052843	1
265	23288	9.400462047558	2
265	23308	9.400856552065	1
265	23318	9.401456657681	3
265	23348	9.409754657681	1
265	23486	9.475182047558	2
265	23506	9.476016552065	1
265	23516	9.476256657681	3
265	23548	9.484554657681	1
265	23558	9.484895052843	3
265	23572	9.493193052843	1
265	23753	9.575142047558	2
265	23773	9.576116552065	1
265	23783	9.576516657681	3
265	23813	9.584814657681	1
265	23918	9.625162047558	2
265	23936	9.626156552065	1
265	24079	9.675616657681	3
265	24114	9.683914657681	1
265	24124	9.684195052843	3
265	24138	9.692493052843	1
265	24418	9.850402047558	2
265	24438	9.850876552065	1
265	24448	9.851296657681	3
265	24478	9.859594657681	1
265	24682	9.975142047558	2
265	24702	9.975556552065	1
265	24712	9.975956657681	3
265	24742	9.984254657681	1
265	24925	10.075302047558	2
265	24945	10.075596552065	1
265	24955	10.076196657681	3
265	24987	10.084494657681	1
265	24997	10.084595052843	3
265	25011	10.092893052843	1
265	25159	10.150382047558	2
265	25177	10.150836552065	1
265	25323	10.225162047558	2
265	25343	10.225836552065	1
265	25353	10.226376657681	3
265	25385	10.234674657681	1
265	25395	10.235295052843	3
265	25410	10.243593052843	1
265	25557	10.300142047558	2
265	25577	10.301076552065	1
265	25587	10.301656657681	3
265	25617	10.309954657681	1
265	25755	10.375602047558	2
265	25775	10.375676552065	1
265	25785	10.375836657681	3
265	25817	10.384134657681	1
265	25827	10.384335052843	3
265	25841	10.392633052843	1
265	26055	10.500402047558	2
265	26075	10.500716552065	1
265	26085	10.500996657681	3
265	26117	10.509294657681	1
265	26127	10.509655052843	3
265	26141	10.517953052843	1
265	26289	10.575122047558	2
265	26309	10.575876552065	1
265	26319	10.575936657681	3
265	26353	10.584234657681	1
265	26358	10.584235052843	3
265	26375	10.592533052843	1
265	26589	10.700502047558	2
265	26609	10.701496552065	1
265	26619	10.701736657681	3
265	26651	10.710034657681	1
265	26661	10.710335052843	3
265	26675	10.718633052843	1
265	26955	10.875062047558	2
265	26975	10.875796552065	1
265	26985	10.876396657681	3
265	27017	10.884694657681	1
265	27027	10.885275052843	3
265	27042	10.893573052843	1
265	27190	10.950402047558	2
265	27210	10.950656552065	1
265	27220	10.951276657681	3
265	27252	10.959574657681	1
265	27262	10.959595052843	3
265	27276	10.967893052843	1
265	27436	11.025502047558	2
265	27456	11.025816552065	1
265	27466	11.026356657681	3
265	27498	11.034654657681	1
265	27508	11.034855052843	3
265	27522	11.043153052843	1
265	27637	11.075062047558	2
265	27657	11.075696552065	1
265	27667	11.076016657681	3
265	27699	11.084314657681	1
265	27709	11.084395052843	3
265	27723	11.092693052843	1
265	27873	11.150042047558	2
265	27899	11.150496552065	1
265	27902	11.150496657681	3
265	27933	11.158794657681	1
265	28138	11.275502047558	2
265	28158	11.275756552065	1
265	28168	11.276016657681	3
265	28198	11.284314657681	1
265	28436	11.425162047558	2
265	28456	11.425976552065	1
265	28466	11.426556657681	3
265	28496	11.434854657681	1
265	28733	11.575282047558	2
265	28753	11.575616552065	1
265	28763	11.576076657681	3
265	28795	11.584374657681	1
265	28805	11.584675052843	3
265	28819	11.592973052843	1
265	28967	11.650062047558	2
265	28987	11.650176552065	1
265	28997	11.650356657681	3
265	29029	11.658654657681	1
265	29039	11.659015052843	3
265	29053	11.667313052843	1
265	29366	11.850262047558	2
265	29386	11.850796552065	1
265	29396	11.850856657681	3
265	29428	11.859154657681	1
265	29438	11.859335052843	3
265	29452	11.867633052843	1
265	29777	12.050142047558	2
265	29797	12.051136552065	1
265	29807	12.051716657681	3
265	29837	12.060014657681	1
265	29942	12.100302047558	2
265	29962	12.101036552065	1
265	29972	12.101236657681	3
265	30004	12.109534657681	1
265	30014	12.109855052843	3
265	30028	12.118153052843	1
265	30176	12.175262047558	2
265	30194	12.175856552065	1
265	30337	12.225796657681	3
265	30372	12.234094657681	1
265	30382	12.234115052843	3
265	30396	12.242413052843	1
265	30577	12.325302047558	2
265	30597	12.325556552065	1
265	30607	12.325696657681	3
265	30637	12.333994657681	1
265	30874	12.475042047558	2
265	30892	12.476276552065	1
265	31038	12.550002047558	2
265	31058	12.550856552065	1
265	31068	12.550976657681	3
265	31098	12.559274657681	1
265	31203	12.600162047558	2
265	31223	12.600956552065	1
265	31233	12.601036657681	3
265	31265	12.609334657681	1
265	31275	12.609595052843	3
265	31289	12.617893052843	1
265	31566	12.750856657681	3
265	31599	12.759154657681	1
265	31704	12.800042047558	2
265	31724	12.800836552065	1
265	31734	12.801096657681	3
265	31764	12.809394657681	1
265	31888	12.850362047558	2
265	31908	12.850796552065	1
265	31918	12.851396657681	3
265	31950	12.859694657681	1
265	31960	12.860035052843	3
265	31974	12.868333052843	1
265	32122	12.925522047558	2
265	32140	12.926236552065	1
265	32331	13.025442047558	2
265	32351	13.025956552065	1
265	32361	13.026056657681	3
265	32391	13.034354657681	1
265	32595	13.150342047558	2
265	32615	13.150816552065	1
265	32625	13.150856657681	3
265	32657	13.159154657681	1
265	32667	13.159775052843	3
265	32681	13.168073052843	1
265	32829	13.225142047558	2
265	32847	13.225456552065	1
265	32960	13.275382047558	2
265	32980	13.275876552065	1
265	32990	13.275996657681	3
265	33020	13.284294657681	1
265	33191	13.375262047558	2
265	33211	13.376116552065	1
265	33221	13.376176657681	3
265	33253	13.384474657681	1
265	33263	13.384695052843	3
265	33277	13.392993052843	1
265	33425	13.450502047558	2
265	33443	13.451056552065	1
265	33588	13.500402047558	2
265	33608	13.501036552065	1
265	33618	13.501576657681	3
265	33650	13.509874657681	1
265	33660	13.510295052843	3
265	33674	13.518593052843	1
265	33888	13.625482047558	2
265	33908	13.625796552065	1
265	33918	13.625976657681	3
265	33950	13.634274657681	1
265	33960	13.634455052843	3
265	33974	13.642753052843	1
265	34122	13.700222047558	2
265	34142	13.700376552065	1
265	34152	13.700596657681	3
265	34184	13.708894657681	1
265	34194	13.709455052843	3
265	34208	13.717753052843	1
265	34455	13.850602047558	2
265	34475	13.851236552065	1
265	34485	13.851416657681	3
265	34517	13.859714657681	1
265	34527	13.859975052843	3
265	34541	13.868273052843	1
265	34785	13.975856657681	3
265	34820	13.984154657681	1
265	34830	13.984215052843	3
265	34844	13.992513052843	1
265	35037	14.075602047558	2
265	35057	14.076016552065	1
265	35067	14.076476657681	3
265	35097	14.084774657681	1
265	35232	14.125496657681	3
265	35267	14.133794657681	1
265	35277	14.133975052843	3
265	35291	14.142273052843	1
265	35439	14.200202047558	2
265	35459	14.200476552065	1
265	35469	14.200596657681	3
265	35501	14.208894657681	1
265	35511	14.209075052843	3
265	35525	14.217373052843	1
265	35772	14.350522047558	2
265	35792	14.350596552065	1
265	35802	14.350836657681	3
265	35834	14.359134657681	1
265	35844	14.359375052843	3
265	35858	14.367673052843	1
265	36105	14.500222047558	2
265	36125	14.500876552065	1
265	36135	14.501416657681	3
265	36167	14.509714657681	1
265	36177	14.509935052843	3
265	36191	14.518233052843	1
265	36402	14.600776657681	3
265	36437	14.609074657681	1
265	36447	14.609335052843	3
265	36461	14.617633052843	1
265	36708	14.750602047558	2
265	36728	14.750636552065	1
265	36738	14.750696657681	3
265	36768	14.758994657681	1
265	36939	14.850282047558	2
265	36959	14.850956552065	1
265	36969	14.851036657681	3
265	37001	14.859334657681	1
265	37011	14.859615052843	3
265	37025	14.867913052843	1
265	37206	14.950082047558	2
265	37226	14.951416552065	1
265	37236	14.951576657681	3
265	37266	14.959874657681	1
265	37482	15.075282047558	2
265	37502	15.075936552065	1
265	37512	15.076556657681	3
265	37546	15.084854657681	1
265	37551	15.084855052843	3
265	37568	15.093153052843	1
265	37683	15.125222047558	2
265	37703	15.125416552065	1
265	37713	15.125636657681	3
265	37745	15.133934657681	1
265	37755	15.134075052843	3
265	37769	15.142373052843	1
265	37917	15.200082047558	2
265	37937	15.200236552065	1
265	37947	15.200336657681	3
265	37979	15.208634657681	1
265	37989	15.208735052843	3
265	38003	15.217033052843	1
265	38118	15.250462047558	2
265	38138	15.250536552065	1
265	38148	15.251096657681	3
265	38180	15.259394657681	1
265	38190	15.259675052843	3
265	38204	15.267973052843	1
265	38385	15.350302047558	2
265	38403	15.350896552065	1
265	38518	15.400502047558	2
265	38538	15.401076552065	1
265	38548	15.401436657681	3
265	38580	15.409734657681	1
265	38590	15.410055052843	3
265	38604	15.418353052843	1
265	38722	15.450542047558	2
265	38742	15.450836552065	1
265	38752	15.450976657681	3
265	38784	15.459274657681	1
265	38794	15.459615052843	3
265	38808	15.467913052843	1
265	39022	15.575522047558	2
265	39042	15.576316552065	1
265	39052	15.576696657681	3
265	39086	15.584994657681	1
265	39091	15.584995052843	3
265	39108	15.593293052843	1
265	39256	15.650402047558	2
265	39276	15.650996552065	1
265	39286	15.651096657681	3
265	39318	15.659394657681	1
265	39328	15.659415052843	3
265	39342	15.667713052843	1
265	39457	15.700102047558	2
265	39477	15.700956552065	1
265	39487	15.701236657681	3
265	39517	15.709534657681	1
265	39919	15.975302047558	2
265	39939	15.975536552065	1
265	39949	15.976016657681	3
265	39981	15.984314657681	1
265	39991	15.984595052843	3
265	40005	15.992893052843	1
265	40165	16.050202047558	2
265	40183	16.050516552065	1
265	40461	16.225142047558	2
265	40481	16.226036552065	1
265	40491	16.226616657681	3
265	40523	16.234914657681	1
265	40533	16.235215052843	3
265	40548	16.243513052843	1
265	40692	16.275716657681	3
265	40727	16.284014657681	1
265	40737	16.284515052843	3
265	40751	16.292813052843	1
265	40866	16.325582047558	2
265	40886	16.325596552065	1
265	40896	16.325976657681	3
265	40928	16.334274657681	1
265	40938	16.334755052843	3
265	40952	16.343053052843	1
265	41133	16.425422047558	2
265	41153	16.426036552065	1
265	41163	16.426576657681	3
265	41193	16.434874657681	1
265	41298	16.475622047558	2
265	41318	16.476236552065	1
265	41328	16.476556657681	3
265	41360	16.484854657681	1
265	41370	16.485215052843	3
265	41384	16.493513052843	1
265	41499	16.525102047558	2
265	41519	16.525436552065	1
265	41529	16.525796657681	3
265	41561	16.534094657681	1
265	41571	16.534275052843	3
265	41585	16.542573052843	1
265	41700	16.575562047558	2
265	41720	16.576056552065	1
265	41730	16.576176657681	3
265	41762	16.584474657681	1
265	41772	16.584555052843	3
265	41786	16.592853052843	1
265	41901	16.625262047558	2
265	41919	16.625496552065	1
265	42129	16.725716657681	3
265	42164	16.734014657681	1
265	42174	16.734515052843	3
265	42188	16.742813052843	1
265	42338	16.800442047558	2
265	42358	16.800796552065	1
265	42368	16.801076657681	3
265	42400	16.809374657681	1
265	42410	16.809755052843	3
265	42424	16.818053052843	1
265	42572	16.875262047558	2
265	42592	16.876156552065	1
265	42602	16.876396657681	3
265	42634	16.884694657681	1
265	42644	16.884915052843	3
265	42658	16.893213052843	1
265	42841	16.975322047558	2
265	42861	16.975676552065	1
265	42871	16.975916657681	3
265	42905	16.984214657681	1
265	42910	16.984215052843	3
265	42929	16.992513052843	1
265	43056	17.025422047558	2
265	43074	17.025636552065	1
265	43486	17.300122047558	2
265	43506	17.300696552065	1
265	43516	17.300936657681	3
265	43546	17.309234657681	1
265	43684	17.375242047558	2
265	43704	17.375796552065	1
265	43714	17.376376657681	3
265	43746	17.384674657681	1
265	43756	17.385195052843	3
265	43770	17.393493052843	1
265	43987	17.500042047558	2
265	44013	17.501276552065	1
265	44016	17.501276657681	3
265	44049	17.509574657681	1
265	44059	17.510135052843	3
265	44074	17.518433052843	1
265	44188	17.550162047558	2
265	44208	17.550736552065	1
265	44218	17.550776657681	3
265	44250	17.559074657681	1
265	44260	17.559595052843	3
265	44274	17.567893052843	1
265	44455	17.650222047558	2
265	44475	17.650556552065	1
265	44485	17.650716657681	3
265	44517	17.659014657681	1
265	44527	17.659415052843	3
265	44541	17.667713052843	1
265	44689	17.725042047558	2
265	44709	17.725616552065	1
265	44719	17.725916657681	3
265	44751	17.734214657681	1
265	44761	17.734515052843	3
265	44775	17.742813052843	1
265	44956	17.825102047558	2
265	44976	17.825876552065	1
265	44986	17.826176657681	3
265	45016	17.834474657681	1
265	45121	17.875302047558	2
265	45141	17.875776552065	1
265	45151	17.875856657681	3
265	45183	17.884154657681	1
265	45193	17.884675052843	3
265	45207	17.892973052843	1
265	45322	17.925442047558	2
265	45342	17.926036552065	1
265	45352	17.926456657681	3
265	45384	17.934754657681	1
265	45394	17.935275052843	3
265	45408	17.943573052843	1
265	45523	17.975062047558	2
265	45543	17.975736552065	1
265	45553	17.976116657681	3
265	45585	17.984414657681	1
265	45595	17.984815052843	3
265	45609	17.993113052843	1
265	45802	18.075282047558	2
265	45820	18.075396552065	1
265	45933	18.125622047558	2
265	45953	18.126496552065	1
265	45963	18.126616657681	3
265	45995	18.134914657681	1
265	46005	18.135015052843	3
265	46019	18.143313052843	1
265	46200	18.225122047558	2
265	46220	18.226196552065	1
265	46230	18.226416657681	3
265	46262	18.234714657681	1
265	46272	18.235095052843	3
265	46286	18.243393052843	1
265	46401	18.275022047558	2
265	46419	18.275656552065	1
265	46532	18.325202047558	2
265	46552	18.325936552065	1
265	46562	18.325956657681	3
265	46594	18.334254657681	1
265	46604	18.334795052843	3
265	46618	18.343093052843	1
265	46733	18.375342047558	2
265	46753	18.375696552065	1
265	46763	18.376236657681	3
265	46795	18.384534657681	1
265	46805	18.384655052843	3
265	46819	18.392953052843	1
265	46967	18.450362047558	2
265	46985	18.450516552065	1
265	47098	18.500522047558	2
265	47118	18.500636552065	1
265	47128	18.501136657681	3
265	47160	18.509434657681	1
265	47170	18.509695052843	3
265	47184	18.517993052843	1
265	47398	18.625162047558	2
265	47418	18.626216552065	1
265	47428	18.626776657681	3
265	47460	18.635074657681	1
265	47470	18.635295052843	3
265	47485	18.643593052843	1
265	47665	18.725582047558	2
265	47685	18.725836552065	1
265	47695	18.726276657681	3
265	47727	18.734574657681	1
265	47737	18.734875052843	3
265	47751	18.743173052843	1
265	47962	18.825676657681	3
265	47997	18.833974657681	1
265	48007	18.834015052843	3
265	48021	18.842313052843	1
265	48202	18.925222047558	2
265	48222	18.925696552065	1
265	48232	18.926256657681	3
265	48264	18.934554657681	1
265	48274	18.934635052843	3
265	48288	18.942933052843	1
265	48483	19.025262047558	2
265	48501	19.025696552065	1
265	48812	19.225242047558	2
265	48832	19.225896552065	1
265	48842	19.226516657681	3
265	48872	19.234814657681	1
265	49145	19.400242047558	2
265	49165	19.400496552065	1
265	49175	19.400816657681	3
265	49207	19.409114657681	1
265	49217	19.409235052843	3
265	49231	19.417533052843	1
265	49610	19.650122047558	2
265	49630	19.651036552065	1
265	49640	19.651216657681	3
265	49672	19.659514657681	1
265	49682	19.659635052843	3
265	49696	19.667933052843	1
265	50009	19.850162047558	2
265	50029	19.850936552065	1
265	50039	19.851256657681	3
265	50069	19.859554657681	1
265	50207	19.925462047558	2
265	50227	19.926396552065	1
265	50237	19.926736657681	3
265	50269	19.935034657681	1
265	50279	19.935435052843	3
265	50293	19.943733052843	1
265	50425	19.975596657681	3
265	50458	19.983894657681	1
265	50483	19.984315052843	3
265	50497	19.992613052843	1
265	50624	20.025282047558	2
265	50642	20.025676552065	1
265	50755	20.075502047558	2
265	50773	20.076296552065	1
265	50886	20.125102047558	2
265	50906	20.126096552065	1
265	50916	20.126416657681	3
265	50948	20.134714657681	1
265	50958	20.134975052843	3
265	50972	20.143273052843	1
265	51219	20.275122047558	2
265	51239	20.275536552065	1
265	51249	20.275696657681	3
265	51281	20.283994657681	1
265	51291	20.284055052843	3
265	51305	20.292353052843	1
265	51453	20.350002047558	2
265	51471	20.350456552065	1
266	1161	0.839117650084	1
266	1162	0.839117650084	2
266	1175	0.839607650084	1
266	1175	0.839607650084	0
266	1756	1.47686074894	1
266	1757	1.47686074894	2
266	1774	1.47735074894	1
266	1774	1.47735074894	0
