version 2
run Host40_10pps-0-20161122-15:11:06-5960
attr configname Host40_10pps
attr datetime 20161122-15:11:06
attr experiment Host40_10pps
attr inifile omnetpp_40.ini
attr iterationvars ""
attr iterationvars2 $repetition=0
attr measurement ""
attr network arb_png.car_host_40
attr processid 5960
attr repetition 0
attr replication #0
attr resultdir results
attr runnumber 0
attr seedset 0
param **.aodv.activeRouteTimeout 2s
param *.configurator.addStaticRoutes false
param *.configurator.config "xml(\"<config><interface hosts='**' address='10.0.0.x' netmask='255.255.255.0'/><autoroute metric='errorRate'/></config>\")"
param *.configurator.optimizeRoutes true
param *.host*.**.bitrate 1Mbps
param *.host*.networkLayer.arpType "\"GlobalARP\""
param *.host*.routingTable.netmaskRoutes "\"\""
param *.host*.wlan[0].mac.maxQueueSize 15
param *.host*.wlan[0].mac.useAck false
param *.host*.wlan[0].macType "\"CsmaCaMac\""
param *.host*.wlan[0].radio.bandwidth 2MHz
param *.host*.wlan[0].radio.carrierFrequency 2GHz
param *.host*.wlan[0].radio.displayCommunicationRange true
param *.host*.wlan[0].radio.displayInterferenceRange true
param *.host*.wlan[0].radio.receiver.energyDetection -85dBm
param *.host*.wlan[0].radio.receiver.ignoreInterference false
param *.host*.wlan[0].radio.receiver.sensitivity -85dBm
param *.host*.wlan[0].radio.receiver.snirThreshold 4dB
param *.host*.wlan[0].radio.transmitter.communicationRange 200m
param *.host*.wlan[0].radio.transmitter.headerBitLength 0b
param *.host*.wlan[0].radio.transmitter.power 1.4mW
param *.host*.wlan[0].radio.transmitter.preambleDuration 10us
param *.host*.wlan[0].radioType "\"APSKScalarRadio\""
param *.host*.wlan[0].typename "\"WirelessNic\""
param *.hostA.numUdpApps 1
param *.hostA.udpApp[0].destAddresses "\"hostD\""
param *.hostA.udpApp[0].destPort 5000
param *.hostA.udpApp[0].messageLength 1000B
param *.hostA.udpApp[0].packetName "\"Data\""
param *.hostA.udpApp[0].sendInterval 100ms
param *.hostA.udpApp[0].typename "\"UDPBasicApp\""
param *.hostD.numUdpApps 1
param *.hostD.udpApp[0].localPort 5000
param *.hostD.udpApp[0].typename "\"UDPSink\""
param *.hostType "\"AODVRouter\""
param *.mediumType "\"APSKScalarRadioMedium\""
param *.radioMedium.backgroundNoise.power -90dBm
param *.radioMedium.mediumLimitCache.carrierFrequency 2GHz
param *.visualizer.dataLinkVisualizer.packetNameFilter "\"AODV*\""
param *.visualizer.mediumVisualizer.signalPropagationUpdateInterval 100ns
param *.visualizer.mobilityVisualizer.displayMovementTrail true
param *.visualizer.networkRouteVisualizer.packetNameFilter "\"UDPData*\""
param *.visualizer.sceneVisualizer.descriptionFigure "\"title\""

scalar car_host_40.radioMedium.propagation 	"Arrival computation count" 	110085
scalar car_host_40.radioMedium 	"transmission count" 	2685
scalar car_host_40.radioMedium 	"radio frame send count" 	110085
scalar car_host_40.radioMedium 	"reception computation count" 	110085
scalar car_host_40.radioMedium 	"interference computation count" 	330808
scalar car_host_40.radioMedium 	"reception decision computation count" 	34882
scalar car_host_40.radioMedium 	"listening decision computation count" 	185938
scalar car_host_40.radioMedium 	"reception cache hit" 	80.097699081766
attr unit  %
scalar car_host_40.radioMedium 	"interference cache hit" 	66.666666666667
attr unit  %
scalar car_host_40.radioMedium 	"noise cache hit" 	0
attr unit  %
scalar car_host_40.radioMedium 	"snir cache hit" 	50
attr unit  %
scalar car_host_40.radioMedium 	"reception decision cache hit" 	50
attr unit  %
scalar car_host_40.radioMedium 	"reception result cache hit" 	0
attr unit  %
scalar car_host_40.hostA.lo0.lo 	droppedPkBitError:count 	0
attr interpolationmode  none
attr source  dropPkBitError
attr title  "packets dropped/bit error, count"
scalar car_host_40.hostA.lo0.lo 	droppedPkBitError:sum(packetBytes) 	0
attr interpolationmode  none
attr source  dropPkBitError
attr title  "packets dropped/bit error, sum(packetBytes)"
scalar car_host_40.hostA.lo0.lo 	rcvdPkFromHL:count 	0
attr interpolationmode  none
attr source  packetReceivedFromUpper
attr title  "packets received from higher layer, count"
scalar car_host_40.hostA.lo0.lo 	rcvdPkFromHL:sum(packetBytes) 	0
attr interpolationmode  none
attr source  packetReceivedFromUpper
attr title  "packets received from higher layer, sum(packetBytes)"
scalar car_host_40.hostA.lo0.lo 	passedUpPk:count 	0
attr interpolationmode  none
attr source  packetSentToUpper
attr title  "packets passed to higher layer, count"
scalar car_host_40.hostA.lo0.lo 	passedUpPk:sum(packetBytes) 	0
attr interpolationmode  none
attr source  packetSentToUpper
attr title  "packets passed to higher layer, sum(packetBytes)"
scalar car_host_40.hostA.wlan[0].mac 	numRetry 	0
scalar car_host_40.hostA.wlan[0].mac 	numSentWithoutRetry 	0
scalar car_host_40.hostA.wlan[0].mac 	numGivenUp 	0
scalar car_host_40.hostA.wlan[0].mac 	numCollision 	8
scalar car_host_40.hostA.wlan[0].mac 	numSent 	569
scalar car_host_40.hostA.wlan[0].mac 	numReceived 	1
scalar car_host_40.hostA.wlan[0].mac 	numSentBroadcast 	5
scalar car_host_40.hostA.wlan[0].mac 	numReceivedBroadcast 	26
statistic car_host_40.hostA.wlan[0].radio 	symbolErrorRate:histogram
field count 602
field mean 5.2709002688848e-005
field stddev 0.00070796540078073
field sum 0.031730819618687
field sqrsum 0.00030290272008688
field min 1.3620169898655e-015
field max 0.013871472241934
attr source  symbolErrorRate
attr title  "Symbol error rate, histogram"
bin	-INF	0
bin	-0.0069357361209647	0
bin	-0.0060109713048359	0
bin	-0.0050862064887071	0
bin	-0.0041614416725783	0
bin	-0.0032366768564495	0
bin	-0.0023119120403207	0
bin	-0.0013871472241919	0
bin	-0.00046238240806305	597
bin	0.00046238240806577	1
bin	0.0013871472241946	1
bin	0.0023119120403234	1
bin	0.0032366768564522	0
bin	0.004161441672581	0
bin	0.0050862064887098	0
bin	0.0060109713048387	0
bin	0.0069357361209675	0
bin	0.0078605009370963	0
bin	0.0087852657532251	0
bin	0.0097100305693539	1
bin	0.010634795385483	0
bin	0.011559560201612	0
bin	0.01248432501774	0
bin	0.013409089833869	1
bin	0.014333854649998	0
bin	0.015258619466127	0
bin	0.016183384282256	0
bin	0.017108149098384	0
bin	0.018032913914513	0
bin	0.018957678730642	0
bin	0.019882443546771	0
bin	0.0208072083629	0
statistic car_host_40.hostA.wlan[0].radio 	bitErrorRate:histogram
field count 602
field mean 5.2709002688848e-005
field stddev 0.00070796540078073
field sum 0.031730819618687
field sqrsum 0.00030290272008688
field min 1.3620169898655e-015
field max 0.013871472241934
attr source  bitErrorRate
attr title  "Bit error rate, histogram"
bin	-INF	0
bin	-0.0069357361209647	0
bin	-0.0060109713048359	0
bin	-0.0050862064887071	0
bin	-0.0041614416725783	0
bin	-0.0032366768564495	0
bin	-0.0023119120403207	0
bin	-0.0013871472241919	0
bin	-0.00046238240806305	597
bin	0.00046238240806577	1
bin	0.0013871472241946	1
bin	0.0023119120403234	1
bin	0.0032366768564522	0
bin	0.004161441672581	0
bin	0.0050862064887098	0
bin	0.0060109713048387	0
bin	0.0069357361209675	0
bin	0.0078605009370963	0
bin	0.0087852657532251	0
bin	0.0097100305693539	1
bin	0.010634795385483	0
bin	0.011559560201612	0
bin	0.01248432501774	0
bin	0.013409089833869	1
bin	0.014333854649998	0
bin	0.015258619466127	0
bin	0.016183384282256	0
bin	0.017108149098384	0
bin	0.018032913914513	0
bin	0.018957678730642	0
bin	0.019882443546771	0
bin	0.0208072083629	0
statistic car_host_40.hostA.wlan[0].radio 	packetErrorRate:histogram
field count 602
field mean 0.0088517958244145
field stddev 0.075661682537926
field sum 5.3287810862975
field sqrsum 3.4877080950553
field min 6.3948846218409e-013
field max 0.99877512745569
attr source  packetErrorRate
attr title  "Packet error rate, histogram"
bin	-INF	0
bin	-0.49938756372688	0
bin	-0.43280255522988	0
bin	-0.36621754673288	0
bin	-0.29963253823587	0
bin	-0.23304752973887	0
bin	-0.16646252124187	0
bin	-0.099877512744865	0
bin	-0.033292504247862	591
bin	0.033292504249141	0
bin	0.099877512746144	3
bin	0.16646252124315	2
bin	0.23304752974015	0
bin	0.29963253823715	0
bin	0.36621754673416	1
bin	0.43280255523116	0
bin	0.49938756372816	1
bin	0.56597257222517	1
bin	0.63255758072217	0
bin	0.69914258921917	1
bin	0.76572759771618	0
bin	0.83231260621318	0
bin	0.89889761471018	0
bin	0.96548262320718	2
bin	1.0320676317042	0
bin	1.0986526402012	0
bin	1.1652376486982	0
bin	1.2318226571952	0
bin	1.2984076656922	0
bin	1.3649926741892	0
bin	1.4315776826862	0
bin	1.4981626911832	0
statistic car_host_40.hostA.wlan[0].radio 	minSNIR:histogram
field count 602
field mean 10.682236448411
field stddev 1.6670547400693
field sum 6430.7063419436
field sqrsum 70364.547650277
field min 1.210992680677
field max 15.614110336308
attr source  minSNIR
attr title  "Min SNIR, histogram"
bin	-INF	0
bin	-5.9905661471385	0
bin	-5.0303583034298	0
bin	-4.070150459721	0
bin	-3.1099426160123	0
bin	-2.1497347723036	0
bin	-1.1895269285948	0
bin	-0.22931908488609	0
bin	0.73088875882265	2
bin	1.6910966025314	3
bin	2.6513044462401	6
bin	3.6115122899489	7
bin	4.5717201336576	9
bin	5.5319279773663	4
bin	6.4921358210751	2
bin	7.4523436647838	2
bin	8.4125515084925	1
bin	9.3727593522013	0
bin	10.33296719591	563
bin	11.293175039619	0
bin	12.253382883327	0
bin	13.213590727036	0
bin	14.173798570745	0
bin	15.134006414454	3
bin	16.094214258162	0
bin	17.054422101871	0
bin	18.01462994558	0
bin	18.974837789289	0
bin	19.935045632997	0
bin	20.895253476706	0
bin	21.855461320415	0
bin	22.815669164124	0
scalar car_host_40.hostA.wlan[0].radio 	transmissionState:count 	2296
attr interpolationmode  sample-hold
attr source  transmissionStateChanged
attr title  "Radio transmission state, count"
scalar car_host_40.hostA.wlan[0].radio 	receptionState:count 	3169
attr interpolationmode  sample-hold
attr source  receptionStateChanged
attr title  "Radio reception state, count"
scalar car_host_40.hostA.wlan[0].radio 	radioMode:count 	1150
attr interpolationmode  sample-hold
attr source  radioModeChanged
attr title  "Radio mode, count"
scalar car_host_40.hostA.udpApp[0] 	"packets sent" 	600
scalar car_host_40.hostA.udpApp[0] 	"packets received" 	0
scalar car_host_40.hostA.udpApp[0] 	sentPk:count 	600
attr interpolationmode  none
attr source  sentPk
attr title  "packets sent, count"
scalar car_host_40.hostA.udpApp[0] 	sentPk:sum(packetBytes) 	600000
attr interpolationmode  none
attr source  sentPk
attr title  "packets sent, sum(packetBytes)"
scalar car_host_40.hostA.udpApp[0] 	rcvdPk:count 	0
attr interpolationmode  none
attr source  rcvdPk
attr title  "packets received, count"
scalar car_host_40.hostA.udpApp[0] 	rcvdPk:sum(packetBytes) 	0
attr interpolationmode  none
attr source  rcvdPk
attr title  "packets received, sum(packetBytes)"
scalar car_host_40.hostA.udpApp[0] 	throughput:last 	nan
attr source  throughput(rcvdPk)
attr title  "throughput, last"
attr unit  bps
statistic car_host_40.hostA.udpApp[0] 	rcvdPkLifetime:stats
field count 0
field mean nan
field stddev nan
field sum 0
field sqrsum 0
field min nan
field max nan
attr interpolationmode  none
attr source  messageAge(rcvdPk)
attr title  "received packet lifetime, stats"
attr unit  s
scalar car_host_40.hostA.udp 	droppedPkBadChecksum:count 	0
attr interpolationmode  none
attr title  "packets dropped (checksum error), count"
scalar car_host_40.hostA.udp 	droppedPkWrongPort:count 	0
attr interpolationmode  none
attr title  "packets dropped (wrong port), count"
scalar car_host_40.hostA.udp 	passedUpPk:count 	0
attr interpolationmode  none
attr title  "packets passed up, count"
scalar car_host_40.hostA.udp 	sentPk:count 	600
attr interpolationmode  none
attr source  sentPk
attr title  "packets sent, count"
scalar car_host_40.hostA.udp 	sentPk:sum(packetBytes) 	604800
attr interpolationmode  none
attr source  sentPk
attr title  "packets sent, sum(packetBytes)"
scalar car_host_40.hostA.udp 	rcvdPk:count 	0
attr interpolationmode  none
attr source  rcvdPk
attr title  "packets received, count"
scalar car_host_40.hostA.udp 	rcvdPk:sum(packetBytes) 	0
attr interpolationmode  none
attr source  rcvdPk
attr title  "packets received, sum(packetBytes)"
scalar car_host_40.hostD.lo0.lo 	droppedPkBitError:count 	0
attr interpolationmode  none
attr source  dropPkBitError
attr title  "packets dropped/bit error, count"
scalar car_host_40.hostD.lo0.lo 	droppedPkBitError:sum(packetBytes) 	0
attr interpolationmode  none
attr source  dropPkBitError
attr title  "packets dropped/bit error, sum(packetBytes)"
scalar car_host_40.hostD.lo0.lo 	rcvdPkFromHL:count 	0
attr interpolationmode  none
attr source  packetReceivedFromUpper
attr title  "packets received from higher layer, count"
scalar car_host_40.hostD.lo0.lo 	rcvdPkFromHL:sum(packetBytes) 	0
attr interpolationmode  none
attr source  packetReceivedFromUpper
attr title  "packets received from higher layer, sum(packetBytes)"
scalar car_host_40.hostD.lo0.lo 	passedUpPk:count 	0
attr interpolationmode  none
attr source  packetSentToUpper
attr title  "packets passed to higher layer, count"
scalar car_host_40.hostD.lo0.lo 	passedUpPk:sum(packetBytes) 	0
attr interpolationmode  none
attr source  packetSentToUpper
attr title  "packets passed to higher layer, sum(packetBytes)"
scalar car_host_40.hostD.wlan[0].mac 	numRetry 	0
scalar car_host_40.hostD.wlan[0].mac 	numSentWithoutRetry 	0
scalar car_host_40.hostD.wlan[0].mac 	numGivenUp 	0
scalar car_host_40.hostD.wlan[0].mac 	numCollision 	11
scalar car_host_40.hostD.wlan[0].mac 	numSent 	3
scalar car_host_40.hostD.wlan[0].mac 	numReceived 	285
scalar car_host_40.hostD.wlan[0].mac 	numSentBroadcast 	0
scalar car_host_40.hostD.wlan[0].mac 	numReceivedBroadcast 	18
statistic car_host_40.hostD.wlan[0].radio 	symbolErrorRate:histogram
field count 315
field mean 0.00014603079011365
field stddev 0.0022017742361049
field sum 0.045999698885798
field sqrsum 0.0015289296454207
field min 2.9972646811824e-023
field max 0.038855108363841
attr source  symbolErrorRate
attr title  "Symbol error rate, histogram"
bin	-INF	0
bin	-0.019427554181921	0
bin	-0.016837213624331	0
bin	-0.014246873066742	0
bin	-0.011656532509152	0
bin	-0.0090661919515629	0
bin	-0.0064758513939735	0
bin	-0.0038855108363841	0
bin	-0.0012951702787947	312
bin	0.0012951702787947	2
bin	0.0038855108363841	0
bin	0.0064758513939735	0
bin	0.0090661919515629	0
bin	0.011656532509152	0
bin	0.014246873066742	0
bin	0.016837213624331	0
bin	0.019427554181921	0
bin	0.02201789473951	0
bin	0.024608235297099	0
bin	0.027198575854689	0
bin	0.029788916412278	0
bin	0.032379256969868	0
bin	0.034969597527457	0
bin	0.037559938085046	1
bin	0.040150278642636	0
bin	0.042740619200225	0
bin	0.045330959757815	0
bin	0.047921300315404	0
bin	0.050511640872993	0
bin	0.053101981430583	0
bin	0.055692321988172	0
bin	0.058282662545762	0
statistic car_host_40.hostD.wlan[0].radio 	bitErrorRate:histogram
field count 315
field mean 0.00014603079011365
field stddev 0.0022017742361049
field sum 0.045999698885798
field sqrsum 0.0015289296454207
field min 2.9972646811824e-023
field max 0.038855108363841
attr source  bitErrorRate
attr title  "Bit error rate, histogram"
bin	-INF	0
bin	-0.019427554181921	0
bin	-0.016837213624331	0
bin	-0.014246873066742	0
bin	-0.011656532509152	0
bin	-0.0090661919515629	0
bin	-0.0064758513939735	0
bin	-0.0038855108363841	0
bin	-0.0012951702787947	312
bin	0.0012951702787947	2
bin	0.0038855108363841	0
bin	0.0064758513939735	0
bin	0.0090661919515629	0
bin	0.011656532509152	0
bin	0.014246873066742	0
bin	0.016837213624331	0
bin	0.019427554181921	0
bin	0.02201789473951	0
bin	0.024608235297099	0
bin	0.027198575854689	0
bin	0.029788916412278	0
bin	0.032379256969868	0
bin	0.034969597527457	0
bin	0.037559938085046	1
bin	0.040150278642636	0
bin	0.042740619200225	0
bin	0.045330959757815	0
bin	0.047921300315404	0
bin	0.050511640872993	0
bin	0.053101981430583	0
bin	0.055692321988172	0
bin	0.058282662545762	0
statistic car_host_40.hostD.wlan[0].radio 	packetErrorRate:histogram
field count 315
field mean 0.028358605237799
field stddev 0.081334463084955
field sum 8.9329606499067
field sqrsum 2.3305288986653
field min 0
field max 0.9999999945216
attr source  packetErrorRate
attr title  "Packet error rate, histogram"
bin	-INF	0
bin	-0.4999999972608	0
bin	-0.43333333095936	0
bin	-0.36666666465792	0
bin	-0.29999999835648	0
bin	-0.23333333205504	0
bin	-0.1666666657536	0
bin	-0.09999999945216	0
bin	-0.03333333315072	309
bin	0.03333333315072	2
bin	0.09999999945216	0
bin	0.1666666657536	1
bin	0.23333333205504	0
bin	0.29999999835648	0
bin	0.36666666465792	0
bin	0.43333333095936	0
bin	0.4999999972608	0
bin	0.56666666356224	0
bin	0.63333332986368	1
bin	0.69999999616512	0
bin	0.76666666246656	1
bin	0.833333328768	0
bin	0.89999999506944	0
bin	0.96666666137088	1
bin	1.0333333276723	0
bin	1.0999999939738	0
bin	1.1666666602752	0
bin	1.2333333265766	0
bin	1.2999999928781	0
bin	1.3666666591795	0
bin	1.433333325481	0
bin	1.4999999917824	0
statistic car_host_40.hostD.wlan[0].radio 	minSNIR:histogram
field count 315
field mean 5.4186119261707
field stddev 1.9573875625664
field sum 1706.8627567438
field sqrsum 10451.875836037
field min 0.77803802452166
field max 24.321977011446
attr source  minSNIR
attr title  "Min SNIR, histogram"
bin	-INF	0
bin	-10.99393146894	0
bin	-9.4243355364788	0
bin	-7.8547396040172	0
bin	-6.2851436715556	0
bin	-4.715547739094	0
bin	-3.1459518066324	0
bin	-1.5763558741708	0
bin	-0.0067599417091468	1
bin	1.5628359907525	2
bin	3.1324319232141	6
bin	4.7020278556757	296
bin	6.2716237881373	4
bin	7.8412197205989	0
bin	9.4108156530605	0
bin	10.980411585522	0
bin	12.550007517984	1
bin	14.119603450445	1
bin	15.689199382907	1
bin	17.258795315369	1
bin	18.82839124783	0
bin	20.397987180292	0
bin	21.967583112753	0
bin	23.537179045215	2
bin	25.106774977677	0
bin	26.676370910138	0
bin	28.2459668426	0
bin	29.815562775062	0
bin	31.385158707523	0
bin	32.954754639985	0
bin	34.524350572446	0
bin	36.093946504908	0
scalar car_host_40.hostD.wlan[0].radio 	transmissionState:count 	12
attr interpolationmode  sample-hold
attr source  transmissionStateChanged
attr title  "Radio transmission state, count"
scalar car_host_40.hostD.wlan[0].radio 	receptionState:count 	674
attr interpolationmode  sample-hold
attr source  receptionStateChanged
attr title  "Radio reception state, count"
scalar car_host_40.hostD.wlan[0].radio 	radioMode:count 	8
attr interpolationmode  sample-hold
attr source  radioModeChanged
attr title  "Radio mode, count"
scalar car_host_40.hostD.udpApp[0] 	rcvdPk:count 	285
attr interpolationmode  none
attr source  rcvdPk
attr title  "packets received, count"
scalar car_host_40.hostD.udpApp[0] 	rcvdPk:sum(packetBytes) 	285000
attr interpolationmode  none
attr source  rcvdPk
attr title  "packets received, sum(packetBytes)"
scalar car_host_40.hostD.udpApp[0] 	throughput:last 	39992.00159968
attr source  throughput(rcvdPk)
attr title  "throughput, last"
attr unit  bps
statistic car_host_40.hostD.udpApp[0] 	endToEndDelay:histogram
field count 285
field mean 0.066446751385523
field stddev 0.24967644585138
field sum 18.937324144874
field sqrsum 18.962408711447
field min 0.050371796168
field max 4.266674033162
attr interpolationmode  none
attr source  messageAge(rcvdPk)
attr title  "end-to-end delay, histogram"
attr unit  s
bin	-INF	0
bin	-2.057779322329	0
bin	-1.7766925065294	0
bin	-1.4956056907298	0
bin	-1.2145188749302	0
bin	-0.9334320591306	0
bin	-0.652345243331	0
bin	-0.3712584275314	0
bin	-0.0901716117318	284
bin	0.1909152040678	0
bin	0.4720020198674	0
bin	0.753088835667	0
bin	1.0341756514666	0
bin	1.3152624672662	0
bin	1.5963492830658	0
bin	1.8774360988654	0
bin	2.158522914665	0
bin	2.4396097304646	0
bin	2.7206965462642	0
bin	3.0017833620638	0
bin	3.2828701778634	0
bin	3.563956993663	0
bin	3.8450438094626	0
bin	4.1261306252622	1
bin	4.4072174410618	0
bin	4.6883042568614	0
bin	4.969391072661	0
bin	5.2504778884606	0
bin	5.5315647042602	0
bin	5.8126515200598	0
bin	6.0937383358594	0
bin	6.374825151659	0
scalar car_host_40.hostD.udp 	droppedPkBadChecksum:count 	0
attr interpolationmode  none
attr title  "packets dropped (checksum error), count"
scalar car_host_40.hostD.udp 	droppedPkWrongPort:count 	0
attr interpolationmode  none
attr title  "packets dropped (wrong port), count"
scalar car_host_40.hostD.udp 	passedUpPk:count 	285
attr interpolationmode  none
attr title  "packets passed up, count"
scalar car_host_40.hostD.udp 	sentPk:count 	0
attr interpolationmode  none
attr source  sentPk
attr title  "packets sent, count"
scalar car_host_40.hostD.udp 	sentPk:sum(packetBytes) 	0
attr interpolationmode  none
attr source  sentPk
attr title  "packets sent, sum(packetBytes)"
scalar car_host_40.hostD.udp 	rcvdPk:count 	285
attr interpolationmode  none
attr source  rcvdPk
attr title  "packets received, count"
scalar car_host_40.hostD.udp 	rcvdPk:sum(packetBytes) 	287280
attr interpolationmode  none
attr source  rcvdPk
attr title  "packets received, sum(packetBytes)"
scalar car_host_40.hostB.lo0.lo 	droppedPkBitError:count 	0
attr interpolationmode  none
attr source  dropPkBitError
attr title  "packets dropped/bit error, count"
scalar car_host_40.hostB.lo0.lo 	droppedPkBitError:sum(packetBytes) 	0
attr interpolationmode  none
attr source  dropPkBitError
attr title  "packets dropped/bit error, sum(packetBytes)"
scalar car_host_40.hostB.lo0.lo 	rcvdPkFromHL:count 	0
attr interpolationmode  none
attr source  packetReceivedFromUpper
attr title  "packets received from higher layer, count"
scalar car_host_40.hostB.lo0.lo 	rcvdPkFromHL:sum(packetBytes) 	0
attr interpolationmode  none
attr source  packetReceivedFromUpper
attr title  "packets received from higher layer, sum(packetBytes)"
scalar car_host_40.hostB.lo0.lo 	passedUpPk:count 	0
attr interpolationmode  none
attr source  packetSentToUpper
attr title  "packets passed to higher layer, count"
scalar car_host_40.hostB.lo0.lo 	passedUpPk:sum(packetBytes) 	0
attr interpolationmode  none
attr source  packetSentToUpper
attr title  "packets passed to higher layer, sum(packetBytes)"
scalar car_host_40.hostB.wlan[0].mac 	numRetry 	0
scalar car_host_40.hostB.wlan[0].mac 	numSentWithoutRetry 	0
scalar car_host_40.hostB.wlan[0].mac 	numGivenUp 	0
scalar car_host_40.hostB.wlan[0].mac 	numCollision 	26
scalar car_host_40.hostB.wlan[0].mac 	numSent 	0
scalar car_host_40.hostB.wlan[0].mac 	numReceived 	0
scalar car_host_40.hostB.wlan[0].mac 	numSentBroadcast 	4
scalar car_host_40.hostB.wlan[0].mac 	numReceivedBroadcast 	25
statistic car_host_40.hostB.wlan[0].radio 	symbolErrorRate:histogram
field count 1155
field mean 0.00068169260060582
field stddev 0.0078127062369973
field sum 0.78735495369972
field sqrsum 0.070975023118428
field min 4.0197859003729e-022
field max 0.20488932057161
attr source  symbolErrorRate
attr title  "Symbol error rate, histogram"
bin	-INF	0
bin	-0.10244466028581	0
bin	-0.088785372247698	0
bin	-0.075126084209591	0
bin	-0.061466796171483	0
bin	-0.047807508133376	0
bin	-0.034148220095269	0
bin	-0.020488932057161	0
bin	-0.0068296440190537	1140
bin	0.0068296440190537	5
bin	0.020488932057161	1
bin	0.034148220095269	3
bin	0.047807508133376	3
bin	0.061466796171483	1
bin	0.075126084209591	1
bin	0.088785372247698	0
bin	0.10244466028581	0
bin	0.11610394832391	0
bin	0.12976323636202	0
bin	0.14342252440013	0
bin	0.15708181243824	0
bin	0.17074110047634	0
bin	0.18440038851445	0
bin	0.19805967655256	1
bin	0.21171896459067	0
bin	0.22537825262877	0
bin	0.23903754066688	0
bin	0.25269682870499	0
bin	0.26635611674309	0
bin	0.2800154047812	0
bin	0.29367469281931	0
bin	0.30733398085742	0
statistic car_host_40.hostB.wlan[0].radio 	bitErrorRate:histogram
field count 1155
field mean 0.00068169260060582
field stddev 0.0078127062369973
field sum 0.78735495369972
field sqrsum 0.070975023118428
field min 4.0197859003729e-022
field max 0.20488932057161
attr source  bitErrorRate
attr title  "Bit error rate, histogram"
bin	-INF	0
bin	-0.10244466028581	0
bin	-0.088785372247698	0
bin	-0.075126084209591	0
bin	-0.061466796171483	0
bin	-0.047807508133376	0
bin	-0.034148220095269	0
bin	-0.020488932057161	0
bin	-0.0068296440190537	1140
bin	0.0068296440190537	5
bin	0.020488932057161	1
bin	0.034148220095269	3
bin	0.047807508133376	3
bin	0.061466796171483	1
bin	0.075126084209591	1
bin	0.088785372247698	0
bin	0.10244466028581	0
bin	0.11610394832391	0
bin	0.12976323636202	0
bin	0.14342252440013	0
bin	0.15708181243824	0
bin	0.17074110047634	0
bin	0.18440038851445	0
bin	0.19805967655256	1
bin	0.21171896459067	0
bin	0.22537825262877	0
bin	0.23903754066688	0
bin	0.25269682870499	0
bin	0.26635611674309	0
bin	0.2800154047812	0
bin	0.29367469281931	0
bin	0.30733398085742	0
statistic car_host_40.hostB.wlan[0].radio 	packetErrorRate:histogram
field count 1155
field mean 0.020123584656188
field stddev 0.13467613056181
field sum 23.242740277897
field sqrsum 21.398587056765
field min 0
field max 1
attr source  packetErrorRate
attr title  "Packet error rate, histogram"
bin	-INF	0
bin	-0.5	0
bin	-0.43333333333333	0
bin	-0.36666666666667	0
bin	-0.3	0
bin	-0.23333333333333	0
bin	-0.16666666666667	0
bin	-0.1	0
bin	-0.033333333333333	1129
bin	0.033333333333333	0
bin	0.1	1
bin	0.16666666666667	0
bin	0.23333333333333	0
bin	0.3	1
bin	0.36666666666667	0
bin	0.43333333333333	1
bin	0.5	1
bin	0.56666666666667	0
bin	0.63333333333333	1
bin	0.7	0
bin	0.76666666666667	0
bin	0.83333333333333	0
bin	0.9	5
bin	0.96666666666667	16
bin	1.0333333333333	0
bin	1.1	0
bin	1.1666666666667	0
bin	1.2333333333333	0
bin	1.3	0
bin	1.3666666666667	0
bin	1.4333333333333	0
bin	1.5	0
statistic car_host_40.hostB.wlan[0].radio 	minSNIR:histogram
field count 1155
field mean 13.662582619206
field stddev 6.7957006984421
field sum 15780.282925183
field sqrsum 268892.92559191
field min 0.16986071365629
field max 23.037214987526
attr source  minSNIR
attr title  "Min SNIR, histogram"
bin	-INF	0
bin	-11.263816423279	0
bin	-9.739326138354	0
bin	-8.2148358534293	0
bin	-6.6903455685047	0
bin	-5.16585528358	0
bin	-3.6413649986553	0
bin	-2.1168747137307	0
bin	-0.59238442880604	9
bin	0.93210585611861	14
bin	2.4565961410433	6
bin	3.9810864259679	7
bin	5.5055767108926	396
bin	7.0300669958172	3
bin	8.5545572807419	4
bin	10.079047565667	2
bin	11.603537850591	3
bin	13.128028135516	355
bin	14.65251842044	0
bin	16.177008705365	0
bin	17.70149899029	0
bin	19.225989275214	0
bin	20.750479560139	1
bin	22.274969845064	355
bin	23.799460129988	0
bin	25.323950414913	0
bin	26.848440699838	0
bin	28.372930984762	0
bin	29.897421269687	0
bin	31.421911554612	0
bin	32.946401839536	0
bin	34.470892124461	0
scalar car_host_40.hostB.wlan[0].radio 	transmissionState:count 	16
attr interpolationmode  sample-hold
attr source  transmissionStateChanged
attr title  "Radio transmission state, count"
scalar car_host_40.hostB.wlan[0].radio 	receptionState:count 	2372
attr interpolationmode  sample-hold
attr source  receptionStateChanged
attr title  "Radio reception state, count"
scalar car_host_40.hostB.wlan[0].radio 	radioMode:count 	10
attr interpolationmode  sample-hold
attr source  radioModeChanged
attr title  "Radio mode, count"
scalar car_host_40.hostC.lo0.lo 	droppedPkBitError:count 	0
attr interpolationmode  none
attr source  dropPkBitError
attr title  "packets dropped/bit error, count"
scalar car_host_40.hostC.lo0.lo 	droppedPkBitError:sum(packetBytes) 	0
attr interpolationmode  none
attr source  dropPkBitError
attr title  "packets dropped/bit error, sum(packetBytes)"
scalar car_host_40.hostC.lo0.lo 	rcvdPkFromHL:count 	0
attr interpolationmode  none
attr source  packetReceivedFromUpper
attr title  "packets received from higher layer, count"
scalar car_host_40.hostC.lo0.lo 	rcvdPkFromHL:sum(packetBytes) 	0
attr interpolationmode  none
attr source  packetReceivedFromUpper
attr title  "packets received from higher layer, sum(packetBytes)"
scalar car_host_40.hostC.lo0.lo 	passedUpPk:count 	0
attr interpolationmode  none
attr source  packetSentToUpper
attr title  "packets passed to higher layer, count"
scalar car_host_40.hostC.lo0.lo 	passedUpPk:sum(packetBytes) 	0
attr interpolationmode  none
attr source  packetSentToUpper
attr title  "packets passed to higher layer, sum(packetBytes)"
scalar car_host_40.hostC.wlan[0].mac 	numRetry 	0
scalar car_host_40.hostC.wlan[0].mac 	numSentWithoutRetry 	0
scalar car_host_40.hostC.wlan[0].mac 	numGivenUp 	0
scalar car_host_40.hostC.wlan[0].mac 	numCollision 	146
scalar car_host_40.hostC.wlan[0].mac 	numSent 	0
scalar car_host_40.hostC.wlan[0].mac 	numReceived 	0
scalar car_host_40.hostC.wlan[0].mac 	numSentBroadcast 	4
scalar car_host_40.hostC.wlan[0].mac 	numReceivedBroadcast 	35
statistic car_host_40.hostC.wlan[0].radio 	symbolErrorRate:histogram
field count 1063
field mean 0.0006561955800217
field stddev 0.0074044391148044
field sum 0.69753590156306
field sqrsum 0.058682633133858
field min 1.0410809724929e-032
field max 0.11527555590225
attr source  symbolErrorRate
attr title  "Symbol error rate, histogram"
bin	-INF	0
bin	-0.057637777951126	0
bin	-0.049952740890976	0
bin	-0.042267703830826	0
bin	-0.034582666770676	0
bin	-0.026897629710526	0
bin	-0.019212592650375	0
bin	-0.011527555590225	0
bin	-0.0038425185300751	1049
bin	0.0038425185300751	7
bin	0.011527555590225	0
bin	0.019212592650375	1
bin	0.026897629710526	0
bin	0.034582666770676	0
bin	0.042267703830826	0
bin	0.049952740890976	0
bin	0.057637777951126	0
bin	0.065322815011277	0
bin	0.073007852071427	0
bin	0.080692889131577	1
bin	0.088377926191727	1
bin	0.096062963251877	3
bin	0.10374800031203	0
bin	0.11143303737218	1
bin	0.11911807443233	0
bin	0.12680311149248	0
bin	0.13448814855263	0
bin	0.14217318561278	0
bin	0.14985822267293	0
bin	0.15754325973308	0
bin	0.16522829679323	0
bin	0.17291333385338	0
statistic car_host_40.hostC.wlan[0].radio 	bitErrorRate:histogram
field count 1063
field mean 0.0006561955800217
field stddev 0.0074044391148044
field sum 0.69753590156306
field sqrsum 0.058682633133858
field min 1.0410809724929e-032
field max 0.11527555590225
attr source  bitErrorRate
attr title  "Bit error rate, histogram"
bin	-INF	0
bin	-0.057637777951126	0
bin	-0.049952740890976	0
bin	-0.042267703830826	0
bin	-0.034582666770676	0
bin	-0.026897629710526	0
bin	-0.019212592650375	0
bin	-0.011527555590225	0
bin	-0.0038425185300751	1049
bin	0.0038425185300751	7
bin	0.011527555590225	0
bin	0.019212592650375	1
bin	0.026897629710526	0
bin	0.034582666770676	0
bin	0.042267703830826	0
bin	0.049952740890976	0
bin	0.057637777951126	0
bin	0.065322815011277	0
bin	0.073007852071427	0
bin	0.080692889131577	1
bin	0.088377926191727	1
bin	0.096062963251877	3
bin	0.10374800031203	0
bin	0.11143303737218	1
bin	0.11911807443233	0
bin	0.12680311149248	0
bin	0.13448814855263	0
bin	0.14217318561278	0
bin	0.14985822267293	0
bin	0.15754325973308	0
bin	0.16522829679323	0
bin	0.17291333385338	0
statistic car_host_40.hostC.wlan[0].radio 	packetErrorRate:histogram
field count 1063
field mean 0.12250062328627
field stddev 0.17245221928023
field sum 130.21816255331
field sqrsum 47.535439622599
field min 0
field max 1
attr source  packetErrorRate
attr title  "Packet error rate, histogram"
bin	-INF	0
bin	-0.5	0
bin	-0.43333333333333	0
bin	-0.36666666666667	0
bin	-0.3	0
bin	-0.23333333333333	0
bin	-0.16666666666667	0
bin	-0.1	0
bin	-0.033333333333333	389
bin	0.033333333333333	296
bin	0.1	0
bin	0.16666666666667	1
bin	0.23333333333333	353
bin	0.3	2
bin	0.36666666666667	0
bin	0.43333333333333	0
bin	0.5	0
bin	0.56666666666667	0
bin	0.63333333333333	2
bin	0.7	0
bin	0.76666666666667	0
bin	0.83333333333333	0
bin	0.9	2
bin	0.96666666666667	18
bin	1.0333333333333	0
bin	1.1	0
bin	1.1666666666667	0
bin	1.2333333333333	0
bin	1.3	0
bin	1.3666666666667	0
bin	1.4333333333333	0
bin	1.5	0
statistic car_host_40.hostC.wlan[0].radio 	minSNIR:histogram
field count 1063
field mean 14.661437953801
field stddev 14.51290928939
field sum 15585.10854489
field sqrsum 452183.35921083
field min 0.35936453516021
field max 35.121984220871
attr source  minSNIR
attr title  "Min SNIR, histogram"
bin	-INF	0
bin	-17.021945307695	0
bin	-14.704437328648	0
bin	-12.386929349601	0
bin	-10.069421370553	0
bin	-7.7519133915057	0
bin	-5.4344054124583	0
bin	-3.1168974334109	0
bin	-0.79938945436349	13
bin	1.5181185246839	16
bin	3.8356265037313	664
bin	6.1531344827787	4
bin	8.4706424618261	1
bin	10.788150440874	2
bin	13.105658419921	4
bin	15.423166398968	0
bin	17.740674378016	4
bin	20.058182357063	2
bin	22.375690336111	0
bin	24.693198315158	0
bin	27.010706294205	0
bin	29.328214273253	0
bin	31.6457222523	0
bin	33.963230231348	353
bin	36.280738210395	0
bin	38.598246189442	0
bin	40.91575416849	0
bin	43.233262147537	0
bin	45.550770126585	0
bin	47.868278105632	0
bin	50.18578608468	0
bin	52.503294063727	0
scalar car_host_40.hostC.wlan[0].radio 	transmissionState:count 	16
attr interpolationmode  sample-hold
attr source  transmissionStateChanged
attr title  "Radio transmission state, count"
scalar car_host_40.hostC.wlan[0].radio 	receptionState:count 	2954
attr interpolationmode  sample-hold
attr source  receptionStateChanged
attr title  "Radio reception state, count"
scalar car_host_40.hostC.wlan[0].radio 	radioMode:count 	10
attr interpolationmode  sample-hold
attr source  radioModeChanged
attr title  "Radio mode, count"
scalar car_host_40.hostB1.lo0.lo 	droppedPkBitError:count 	0
attr interpolationmode  none
attr source  dropPkBitError
attr title  "packets dropped/bit error, count"
scalar car_host_40.hostB1.lo0.lo 	droppedPkBitError:sum(packetBytes) 	0
attr interpolationmode  none
attr source  dropPkBitError
attr title  "packets dropped/bit error, sum(packetBytes)"
scalar car_host_40.hostB1.lo0.lo 	rcvdPkFromHL:count 	0
attr interpolationmode  none
attr source  packetReceivedFromUpper
attr title  "packets received from higher layer, count"
scalar car_host_40.hostB1.lo0.lo 	rcvdPkFromHL:sum(packetBytes) 	0
attr interpolationmode  none
attr source  packetReceivedFromUpper
attr title  "packets received from higher layer, sum(packetBytes)"
scalar car_host_40.hostB1.lo0.lo 	passedUpPk:count 	0
attr interpolationmode  none
attr source  packetSentToUpper
attr title  "packets passed to higher layer, count"
scalar car_host_40.hostB1.lo0.lo 	passedUpPk:sum(packetBytes) 	0
attr interpolationmode  none
attr source  packetSentToUpper
attr title  "packets passed to higher layer, sum(packetBytes)"
scalar car_host_40.hostB1.wlan[0].mac 	numRetry 	0
scalar car_host_40.hostB1.wlan[0].mac 	numSentWithoutRetry 	0
scalar car_host_40.hostB1.wlan[0].mac 	numGivenUp 	0
scalar car_host_40.hostB1.wlan[0].mac 	numCollision 	9
scalar car_host_40.hostB1.wlan[0].mac 	numSent 	0
scalar car_host_40.hostB1.wlan[0].mac 	numReceived 	0
scalar car_host_40.hostB1.wlan[0].mac 	numSentBroadcast 	5
scalar car_host_40.hostB1.wlan[0].mac 	numReceivedBroadcast 	43
statistic car_host_40.hostB1.wlan[0].radio 	symbolErrorRate:histogram
field count 1576
field mean 1.881230323071e-005
field stddev 0.00048526311276172
field sum 0.029648189891598
field sqrsum 0.00037143920529482
field min 1.7054564688261e-023
field max 0.018839636741864
attr source  symbolErrorRate
attr title  "Symbol error rate, histogram"
bin	-INF	0
bin	-0.009419818370932	0
bin	-0.008163842588141	0
bin	-0.0069078668053501	0
bin	-0.0056518910225592	0
bin	-0.0043959152397683	0
bin	-0.0031399394569773	0
bin	-0.0018839636741864	0
bin	-0.00062798789139546	1570
bin	0.00062798789139546	4
bin	0.0018839636741864	1
bin	0.0031399394569773	0
bin	0.0043959152397683	0
bin	0.0056518910225592	0
bin	0.0069078668053501	0
bin	0.008163842588141	0
bin	0.009419818370932	0
bin	0.010675794153723	0
bin	0.011931769936514	0
bin	0.013187745719305	0
bin	0.014443721502096	0
bin	0.015699697284887	0
bin	0.016955673067678	0
bin	0.018211648850468	1
bin	0.019467624633259	0
bin	0.02072360041605	0
bin	0.021979576198841	0
bin	0.023235551981632	0
bin	0.024491527764423	0
bin	0.025747503547214	0
bin	0.027003479330005	0
bin	0.028259455112796	0
statistic car_host_40.hostB1.wlan[0].radio 	bitErrorRate:histogram
field count 1576
field mean 1.881230323071e-005
field stddev 0.00048526311276172
field sum 0.029648189891598
field sqrsum 0.00037143920529482
field min 1.7054564688261e-023
field max 0.018839636741864
attr source  bitErrorRate
attr title  "Bit error rate, histogram"
bin	-INF	0
bin	-0.009419818370932	0
bin	-0.008163842588141	0
bin	-0.0069078668053501	0
bin	-0.0056518910225592	0
bin	-0.0043959152397683	0
bin	-0.0031399394569773	0
bin	-0.0018839636741864	0
bin	-0.00062798789139546	1570
bin	0.00062798789139546	4
bin	0.0018839636741864	1
bin	0.0031399394569773	0
bin	0.0043959152397683	0
bin	0.0056518910225592	0
bin	0.0069078668053501	0
bin	0.008163842588141	0
bin	0.009419818370932	0
bin	0.010675794153723	0
bin	0.011931769936514	0
bin	0.013187745719305	0
bin	0.014443721502096	0
bin	0.015699697284887	0
bin	0.016955673067678	0
bin	0.018211648850468	1
bin	0.019467624633259	0
bin	0.02072360041605	0
bin	0.021979576198841	0
bin	0.023235551981632	0
bin	0.024491527764423	0
bin	0.025747503547214	0
bin	0.027003479330005	0
bin	0.028259455112796	0
statistic car_host_40.hostB1.wlan[0].radio 	packetErrorRate:histogram
field count 1576
field mean 0.0049486273986187
field stddev 0.042532286537285
field sum 7.7990367802231
field sqrsum 2.8877622790848
field min 0
field max 0.99989155793925
attr source  packetErrorRate
attr title  "Packet error rate, histogram"
bin	-INF	0
bin	-0.49994577896962	0
bin	-0.43328634177367	0
bin	-0.36662690457772	0
bin	-0.29996746738177	0
bin	-0.23330803018582	0
bin	-0.16664859298987	0
bin	-0.099989155793925	0
bin	-0.033329718597975	1563
bin	0.033329718597975	4
bin	0.099989155793925	0
bin	0.16664859298987	2
bin	0.23330803018582	0
bin	0.29996746738177	0
bin	0.36662690457772	2
bin	0.43328634177367	0
bin	0.49994577896962	1
bin	0.56660521616557	2
bin	0.63326465336152	1
bin	0.69992409055747	0
bin	0.76658352775342	0
bin	0.83324296494937	0
bin	0.89990240214532	0
bin	0.96656183934127	1
bin	1.0332212765372	0
bin	1.0998807137332	0
bin	1.1665401509291	0
bin	1.2331995881251	0
bin	1.299859025321	0
bin	1.366518462517	0
bin	1.4331778997129	0
bin	1.4998373369089	0
statistic car_host_40.hostB1.wlan[0].radio 	minSNIR:histogram
field count 1576
field mean 16.100142775415
field stddev 7.485382726984
field sum 25373.825014054
field sqrsum 496770.95893153
field min 1.0798605288463
field max 24.601113362982
attr source  minSNIR
attr title  "Min SNIR, histogram"
bin	-INF	0
bin	-10.680765888222	0
bin	-9.1126823659458	0
bin	-7.5445988436701	0
bin	-5.9765153213944	0
bin	-4.4084317991187	0
bin	-2.8403482768429	0
bin	-1.2722647545672	0
bin	0.29581876770848	1
bin	1.8639022899842	10
bin	3.4319858122599	9
bin	5.0000693345356	399
bin	6.5681528568113	3
bin	8.136236379087	10
bin	9.7043199013627	2
bin	11.272403423638	6
bin	12.840486945914	0
bin	14.40857046819	567
bin	15.976653990466	1
bin	17.544737512741	0
bin	19.112821035017	3
bin	20.680904557293	0
bin	22.248988079568	2
bin	23.817071601844	563
bin	25.38515512412	0
bin	26.953238646396	0
bin	28.521322168671	0
bin	30.089405690947	0
bin	31.657489213223	0
bin	33.225572735498	0
bin	34.793656257774	0
bin	36.36173978005	0
scalar car_host_40.hostB1.wlan[0].radio 	transmissionState:count 	20
attr interpolationmode  sample-hold
attr source  transmissionStateChanged
attr title  "Radio transmission state, count"
scalar car_host_40.hostB1.wlan[0].radio 	receptionState:count 	3192
attr interpolationmode  sample-hold
attr source  receptionStateChanged
attr title  "Radio reception state, count"
scalar car_host_40.hostB1.wlan[0].radio 	radioMode:count 	12
attr interpolationmode  sample-hold
attr source  radioModeChanged
attr title  "Radio mode, count"
scalar car_host_40.hostB2.lo0.lo 	droppedPkBitError:count 	0
attr interpolationmode  none
attr source  dropPkBitError
attr title  "packets dropped/bit error, count"
scalar car_host_40.hostB2.lo0.lo 	droppedPkBitError:sum(packetBytes) 	0
attr interpolationmode  none
attr source  dropPkBitError
attr title  "packets dropped/bit error, sum(packetBytes)"
scalar car_host_40.hostB2.lo0.lo 	rcvdPkFromHL:count 	0
attr interpolationmode  none
attr source  packetReceivedFromUpper
attr title  "packets received from higher layer, count"
scalar car_host_40.hostB2.lo0.lo 	rcvdPkFromHL:sum(packetBytes) 	0
attr interpolationmode  none
attr source  packetReceivedFromUpper
attr title  "packets received from higher layer, sum(packetBytes)"
scalar car_host_40.hostB2.lo0.lo 	passedUpPk:count 	0
attr interpolationmode  none
attr source  packetSentToUpper
attr title  "packets passed to higher layer, count"
scalar car_host_40.hostB2.lo0.lo 	passedUpPk:sum(packetBytes) 	0
attr interpolationmode  none
attr source  packetSentToUpper
attr title  "packets passed to higher layer, sum(packetBytes)"
scalar car_host_40.hostB2.wlan[0].mac 	numRetry 	0
scalar car_host_40.hostB2.wlan[0].mac 	numSentWithoutRetry 	0
scalar car_host_40.hostB2.wlan[0].mac 	numGivenUp 	0
scalar car_host_40.hostB2.wlan[0].mac 	numCollision 	211
scalar car_host_40.hostB2.wlan[0].mac 	numSent 	390
scalar car_host_40.hostB2.wlan[0].mac 	numReceived 	390
scalar car_host_40.hostB2.wlan[0].mac 	numSentBroadcast 	4
scalar car_host_40.hostB2.wlan[0].mac 	numReceivedBroadcast 	46
statistic car_host_40.hostB2.wlan[0].radio 	symbolErrorRate:histogram
field count 982
field mean 0.00059903777460507
field stddev 0.0050112463590013
field sum 0.58825509466218
field sqrsum 0.024987837882069
field min 5.759915431149e-028
field max 0.077221595038795
attr source  symbolErrorRate
attr title  "Symbol error rate, histogram"
bin	-INF	0
bin	-0.038610797519398	0
bin	-0.033462691183478	0
bin	-0.028314584847558	0
bin	-0.023166478511639	0
bin	-0.018018372175719	0
bin	-0.012870265839799	0
bin	-0.0077221595038795	0
bin	-0.0025740531679598	963
bin	0.0025740531679598	5
bin	0.0077221595038795	0
bin	0.012870265839799	1
bin	0.018018372175719	2
bin	0.023166478511639	3
bin	0.028314584847558	1
bin	0.033462691183478	1
bin	0.038610797519398	1
bin	0.043758903855317	0
bin	0.048907010191237	3
bin	0.054055116527157	0
bin	0.059203222863076	0
bin	0.064351329198996	1
bin	0.069499435534916	0
bin	0.074647541870835	1
bin	0.079795648206755	0
bin	0.084943754542675	0
bin	0.090091860878594	0
bin	0.095239967214514	0
bin	0.10038807355043	0
bin	0.10553617988635	0
bin	0.11068428622227	0
bin	0.11583239255819	0
statistic car_host_40.hostB2.wlan[0].radio 	bitErrorRate:histogram
field count 982
field mean 0.00059903777460507
field stddev 0.0050112463590013
field sum 0.58825509466218
field sqrsum 0.024987837882069
field min 5.759915431149e-028
field max 0.077221595038795
attr source  bitErrorRate
attr title  "Bit error rate, histogram"
bin	-INF	0
bin	-0.038610797519398	0
bin	-0.033462691183478	0
bin	-0.028314584847558	0
bin	-0.023166478511639	0
bin	-0.018018372175719	0
bin	-0.012870265839799	0
bin	-0.0077221595038795	0
bin	-0.0025740531679598	963
bin	0.0025740531679598	5
bin	0.0077221595038795	0
bin	0.012870265839799	1
bin	0.018018372175719	2
bin	0.023166478511639	3
bin	0.028314584847558	1
bin	0.033462691183478	1
bin	0.038610797519398	1
bin	0.043758903855317	0
bin	0.048907010191237	3
bin	0.054055116527157	0
bin	0.059203222863076	0
bin	0.064351329198996	1
bin	0.069499435534916	0
bin	0.074647541870835	1
bin	0.079795648206755	0
bin	0.084943754542675	0
bin	0.090091860878594	0
bin	0.095239967214514	0
bin	0.10038807355043	0
bin	0.10553617988635	0
bin	0.11068428622227	0
bin	0.11583239255819	0
statistic car_host_40.hostB2.wlan[0].radio 	packetErrorRate:histogram
field count 982
field mean 0.19330543551045
field stddev 0.16038668128765
field sum 189.82593767126
field sqrsum 61.929519224033
field min 0
field max 1
attr source  packetErrorRate
attr title  "Packet error rate, histogram"
bin	-INF	0
bin	-0.5	0
bin	-0.43333333333333	0
bin	-0.36666666666667	0
bin	-0.3	0
bin	-0.23333333333333	0
bin	-0.16666666666667	0
bin	-0.1	0
bin	-0.033333333333333	45
bin	0.033333333333333	355
bin	0.1	1
bin	0.16666666666667	0
bin	0.23333333333333	560
bin	0.3	0
bin	0.36666666666667	1
bin	0.43333333333333	0
bin	0.5	0
bin	0.56666666666667	0
bin	0.63333333333333	0
bin	0.7	0
bin	0.76666666666667	1
bin	0.83333333333333	1
bin	0.9	1
bin	0.96666666666667	17
bin	1.0333333333333	0
bin	1.1	0
bin	1.1666666666667	0
bin	1.2333333333333	0
bin	1.3	0
bin	1.3666666666667	0
bin	1.4333333333333	0
bin	1.5	0
statistic car_host_40.hostB2.wlan[0].radio 	minSNIR:histogram
field count 982
field mean 4.4386251711285
field stddev 2.0409182645896
field sum 4358.7299180482
field sqrsum 23432.974091243
field min 0.50695207251012
field max 29.702753824485
attr source  minSNIR
attr title  "Min SNIR, histogram"
bin	-INF	0
bin	-14.090948803478	0
bin	-12.144562020013	0
bin	-10.198175236547	0
bin	-8.2517884530825	0
bin	-6.3054016696175	0
bin	-4.3590148861524	0
bin	-2.4126281026874	0
bin	-0.46624131922239	14
bin	1.4801454642426	9
bin	3.4265322477076	928
bin	5.3729190311727	14
bin	7.3193058146377	2
bin	9.2656925981027	2
bin	11.212079381568	2
bin	13.158466165033	1
bin	15.104852948498	0
bin	17.051239731963	2
bin	18.997626515428	5
bin	20.944013298893	0
bin	22.890400082358	0
bin	24.836786865823	0
bin	26.783173649288	2
bin	28.729560432753	1
bin	30.675947216218	0
bin	32.622333999683	0
bin	34.568720783148	0
bin	36.515107566613	0
bin	38.461494350078	0
bin	40.407881133543	0
bin	42.354267917008	0
bin	44.300654700473	0
scalar car_host_40.hostB2.wlan[0].radio 	transmissionState:count 	1576
attr interpolationmode  sample-hold
attr source  transmissionStateChanged
attr title  "Radio transmission state, count"
scalar car_host_40.hostB2.wlan[0].radio 	receptionState:count 	4629
attr interpolationmode  sample-hold
attr source  receptionStateChanged
attr title  "Radio reception state, count"
scalar car_host_40.hostB2.wlan[0].radio 	radioMode:count 	790
attr interpolationmode  sample-hold
attr source  radioModeChanged
attr title  "Radio mode, count"
scalar car_host_40.hostB3.lo0.lo 	droppedPkBitError:count 	0
attr interpolationmode  none
attr source  dropPkBitError
attr title  "packets dropped/bit error, count"
scalar car_host_40.hostB3.lo0.lo 	droppedPkBitError:sum(packetBytes) 	0
attr interpolationmode  none
attr source  dropPkBitError
attr title  "packets dropped/bit error, sum(packetBytes)"
scalar car_host_40.hostB3.lo0.lo 	rcvdPkFromHL:count 	0
attr interpolationmode  none
attr source  packetReceivedFromUpper
attr title  "packets received from higher layer, count"
scalar car_host_40.hostB3.lo0.lo 	rcvdPkFromHL:sum(packetBytes) 	0
attr interpolationmode  none
attr source  packetReceivedFromUpper
attr title  "packets received from higher layer, sum(packetBytes)"
scalar car_host_40.hostB3.lo0.lo 	passedUpPk:count 	0
attr interpolationmode  none
attr source  packetSentToUpper
attr title  "packets passed to higher layer, count"
scalar car_host_40.hostB3.lo0.lo 	passedUpPk:sum(packetBytes) 	0
attr interpolationmode  none
attr source  packetSentToUpper
attr title  "packets passed to higher layer, sum(packetBytes)"
scalar car_host_40.hostB3.wlan[0].mac 	numRetry 	0
scalar car_host_40.hostB3.wlan[0].mac 	numSentWithoutRetry 	0
scalar car_host_40.hostB3.wlan[0].mac 	numGivenUp 	0
scalar car_host_40.hostB3.wlan[0].mac 	numCollision 	29
scalar car_host_40.hostB3.wlan[0].mac 	numSent 	0
scalar car_host_40.hostB3.wlan[0].mac 	numReceived 	0
scalar car_host_40.hostB3.wlan[0].mac 	numSentBroadcast 	4
scalar car_host_40.hostB3.wlan[0].mac 	numReceivedBroadcast 	42
statistic car_host_40.hostB3.wlan[0].radio 	symbolErrorRate:histogram
field count 1375
field mean 0.00055480718462639
field stddev 0.0060095431006339
field sum 0.76285987886129
field sqrsum 0.050044711916144
field min 6.966044874254e-024
field max 0.12302115308572
attr source  symbolErrorRate
attr title  "Symbol error rate, histogram"
bin	-INF	0
bin	-0.061510576542859	0
bin	-0.053309166337145	0
bin	-0.04510775613143	0
bin	-0.036906345925716	0
bin	-0.028704935720001	0
bin	-0.020503525514286	0
bin	-0.012302115308572	0
bin	-0.0041007051028573	1356
bin	0.0041007051028573	2
bin	0.012302115308572	4
bin	0.020503525514286	4
bin	0.028704935720001	2
bin	0.036906345925716	2
bin	0.04510775613143	1
bin	0.053309166337145	0
bin	0.061510576542859	1
bin	0.069711986748574	0
bin	0.077913396954289	1
bin	0.086114807160003	0
bin	0.094316217365718	0
bin	0.10251762757143	0
bin	0.11071903777715	1
bin	0.11892044798286	1
bin	0.12712185818858	0
bin	0.13532326839429	0
bin	0.14352467860001	0
bin	0.15172608880572	0
bin	0.15992749901143	0
bin	0.16812890921715	0
bin	0.17633031942286	0
bin	0.18453172962858	0
statistic car_host_40.hostB3.wlan[0].radio 	bitErrorRate:histogram
field count 1375
field mean 0.00055480718462639
field stddev 0.0060095431006339
field sum 0.76285987886129
field sqrsum 0.050044711916144
field min 6.966044874254e-024
field max 0.12302115308572
attr source  bitErrorRate
attr title  "Bit error rate, histogram"
bin	-INF	0
bin	-0.061510576542859	0
bin	-0.053309166337145	0
bin	-0.04510775613143	0
bin	-0.036906345925716	0
bin	-0.028704935720001	0
bin	-0.020503525514286	0
bin	-0.012302115308572	0
bin	-0.0041007051028573	1356
bin	0.0041007051028573	2
bin	0.012302115308572	4
bin	0.020503525514286	4
bin	0.028704935720001	2
bin	0.036906345925716	2
bin	0.04510775613143	1
bin	0.053309166337145	0
bin	0.061510576542859	1
bin	0.069711986748574	0
bin	0.077913396954289	1
bin	0.086114807160003	0
bin	0.094316217365718	0
bin	0.10251762757143	0
bin	0.11071903777715	1
bin	0.11892044798286	1
bin	0.12712185818858	0
bin	0.13532326839429	0
bin	0.14352467860001	0
bin	0.15172608880572	0
bin	0.15992749901143	0
bin	0.16812890921715	0
bin	0.17633031942286	0
bin	0.18453172962858	0
statistic car_host_40.hostB3.wlan[0].radio 	packetErrorRate:histogram
field count 1375
field mean 0.019968471980151
field stddev 0.1330073252983
field sum 27.456648972707
field sqrsum 24.855630678734
field min 0
field max 1
attr source  packetErrorRate
attr title  "Packet error rate, histogram"
bin	-INF	0
bin	-0.5	0
bin	-0.43333333333333	0
bin	-0.36666666666667	0
bin	-0.3	0
bin	-0.23333333333333	0
bin	-0.16666666666667	0
bin	-0.1	0
bin	-0.033333333333333	1340
bin	0.033333333333333	4
bin	0.1	1
bin	0.16666666666667	1
bin	0.23333333333333	0
bin	0.3	1
bin	0.36666666666667	0
bin	0.43333333333333	0
bin	0.5	1
bin	0.56666666666667	3
bin	0.63333333333333	0
bin	0.7	1
bin	0.76666666666667	0
bin	0.83333333333333	1
bin	0.9	1
bin	0.96666666666667	21
bin	1.0333333333333	0
bin	1.1	0
bin	1.1666666666667	0
bin	1.2333333333333	0
bin	1.3	0
bin	1.3666666666667	0
bin	1.4333333333333	0
bin	1.5	0
statistic car_host_40.hostB3.wlan[0].radio 	minSNIR:histogram
field count 1375
field mean 10.613450255489
field stddev 5.6555950636025
field sum 14593.494101297
field sqrsum 198835.7517871
field min 0.33640925970248
field max 25.04441938908
attr source  minSNIR
attr title  "Min SNIR, histogram"
bin	-INF	0
bin	-12.017595804986	0
bin	-10.370395129694	0
bin	-8.7231944544024	0
bin	-7.0759937791106	0
bin	-5.4287931038188	0
bin	-3.781592428527	0
bin	-2.1343917532352	0
bin	-0.48719107794343	16
bin	1.1600095973484	13
bin	2.8072102726402	10
bin	4.454410947932	6
bin	6.1016116232238	567
bin	7.7488122985156	358
bin	9.3960129738074	6
bin	11.043213649099	0
bin	12.690414324391	0
bin	14.337614999683	0
bin	15.984815674975	0
bin	17.632016350266	393
bin	19.279217025558	4
bin	20.92641770085	0
bin	22.573618376142	0
bin	24.220819051434	2
bin	25.868019726725	0
bin	27.515220402017	0
bin	29.162421077309	0
bin	30.809621752601	0
bin	32.456822427893	0
bin	34.104023103184	0
bin	35.751223778476	0
bin	37.398424453768	0
scalar car_host_40.hostB3.wlan[0].radio 	transmissionState:count 	16
attr interpolationmode  sample-hold
attr source  transmissionStateChanged
attr title  "Radio transmission state, count"
scalar car_host_40.hostB3.wlan[0].radio 	receptionState:count 	4629
attr interpolationmode  sample-hold
attr source  receptionStateChanged
attr title  "Radio reception state, count"
scalar car_host_40.hostB3.wlan[0].radio 	radioMode:count 	10
attr interpolationmode  sample-hold
attr source  radioModeChanged
attr title  "Radio mode, count"
scalar car_host_40.hostB4.lo0.lo 	droppedPkBitError:count 	0
attr interpolationmode  none
attr source  dropPkBitError
attr title  "packets dropped/bit error, count"
scalar car_host_40.hostB4.lo0.lo 	droppedPkBitError:sum(packetBytes) 	0
attr interpolationmode  none
attr source  dropPkBitError
attr title  "packets dropped/bit error, sum(packetBytes)"
scalar car_host_40.hostB4.lo0.lo 	rcvdPkFromHL:count 	0
attr interpolationmode  none
attr source  packetReceivedFromUpper
attr title  "packets received from higher layer, count"
scalar car_host_40.hostB4.lo0.lo 	rcvdPkFromHL:sum(packetBytes) 	0
attr interpolationmode  none
attr source  packetReceivedFromUpper
attr title  "packets received from higher layer, sum(packetBytes)"
scalar car_host_40.hostB4.lo0.lo 	passedUpPk:count 	0
attr interpolationmode  none
attr source  packetSentToUpper
attr title  "packets passed to higher layer, count"
scalar car_host_40.hostB4.lo0.lo 	passedUpPk:sum(packetBytes) 	0
attr interpolationmode  none
attr source  packetSentToUpper
attr title  "packets passed to higher layer, sum(packetBytes)"
scalar car_host_40.hostB4.wlan[0].mac 	numRetry 	0
scalar car_host_40.hostB4.wlan[0].mac 	numSentWithoutRetry 	0
scalar car_host_40.hostB4.wlan[0].mac 	numGivenUp 	0
scalar car_host_40.hostB4.wlan[0].mac 	numCollision 	273
scalar car_host_40.hostB4.wlan[0].mac 	numSent 	0
scalar car_host_40.hostB4.wlan[0].mac 	numReceived 	0
scalar car_host_40.hostB4.wlan[0].mac 	numSentBroadcast 	5
scalar car_host_40.hostB4.wlan[0].mac 	numReceivedBroadcast 	53
statistic car_host_40.hostB4.wlan[0].radio 	symbolErrorRate:histogram
field count 1941
field mean 0.0002894515365279
field stddev 0.0048328901876453
field sum 0.56182543240065
field sqrsum 0.045474866712396
field min 4.9013873913252e-036
field max 0.16989052786535
attr source  symbolErrorRate
attr title  "Symbol error rate, histogram"
bin	-INF	0
bin	-0.050725797840877	0
bin	-0.04396235812876	0
bin	-0.037198918416643	0
bin	-0.030435478704526	0
bin	-0.023672038992409	0
bin	-0.016908599280292	0
bin	-0.010145159568175	0
bin	-0.0033817198560585	1926
bin	0.0033817198560585	5
bin	0.010145159568175	1
bin	0.016908599280292	5
bin	0.023672038992409	0
bin	0.030435478704526	0
bin	0.037198918416643	0
bin	0.04396235812876	2
bin	0.050725797840877	0
bin	0.057489237552994	0
bin	0.064252677265111	0
bin	0.071016116977228	0
bin	0.077779556689345	0
bin	0.084542996401462	0
bin	0.091306436113579	0
bin	0.098069875825696	1
bin	0.10483331553781	0
bin	0.11159675524993	0
bin	0.11836019496205	0
bin	0.12512363467416	0
bin	0.13188707438628	0
bin	0.1386505140984	0
bin	0.14541395381051	0
bin	0.15217739352263	1
statistic car_host_40.hostB4.wlan[0].radio 	bitErrorRate:histogram
field count 1941
field mean 0.0002894515365279
field stddev 0.0048328901876453
field sum 0.56182543240065
field sqrsum 0.045474866712396
field min 4.9013873913252e-036
field max 0.16989052786535
attr source  bitErrorRate
attr title  "Bit error rate, histogram"
bin	-INF	0
bin	-0.050725797840877	0
bin	-0.04396235812876	0
bin	-0.037198918416643	0
bin	-0.030435478704526	0
bin	-0.023672038992409	0
bin	-0.016908599280292	0
bin	-0.010145159568175	0
bin	-0.0033817198560585	1926
bin	0.0033817198560585	5
bin	0.010145159568175	1
bin	0.016908599280292	5
bin	0.023672038992409	0
bin	0.030435478704526	0
bin	0.037198918416643	0
bin	0.04396235812876	2
bin	0.050725797840877	0
bin	0.057489237552994	0
bin	0.064252677265111	0
bin	0.071016116977228	0
bin	0.077779556689345	0
bin	0.084542996401462	0
bin	0.091306436113579	0
bin	0.098069875825696	1
bin	0.10483331553781	0
bin	0.11159675524993	0
bin	0.11836019496205	0
bin	0.12512363467416	0
bin	0.13188707438628	0
bin	0.1386505140984	0
bin	0.14541395381051	0
bin	0.15217739352263	1
statistic car_host_40.hostB4.wlan[0].radio 	packetErrorRate:histogram
field count 1941
field mean 0.14811514095207
field stddev 0.27093353003777
field sum 287.49148858797
field sqrsum 184.98749909026
field min 0
field max 1
attr source  packetErrorRate
attr title  "Packet error rate, histogram"
bin	-INF	0
bin	-0.5	0
bin	-0.43333333333333	0
bin	-0.36666666666667	0
bin	-0.3	0
bin	-0.23333333333333	0
bin	-0.16666666666667	0
bin	-0.1	0
bin	-0.033333333333333	996
bin	0.033333333333333	570
bin	0.1	2
bin	0.16666666666667	0
bin	0.23333333333333	0
bin	0.3	0
bin	0.36666666666667	0
bin	0.43333333333333	0
bin	0.5	0
bin	0.56666666666667	0
bin	0.63333333333333	353
bin	0.7	0
bin	0.76666666666667	4
bin	0.83333333333333	0
bin	0.9	1
bin	0.96666666666667	15
bin	1.0333333333333	0
bin	1.1	0
bin	1.1666666666667	0
bin	1.2333333333333	0
bin	1.3	0
bin	1.3666666666667	0
bin	1.4333333333333	0
bin	1.5	0
statistic car_host_40.hostB4.wlan[0].radio 	minSNIR:histogram
field count 1941
field mean 9.8376472034114
field stddev 5.9752837035941
field sum 19094.873221822
field sqrsum 257114.41590671
field min 0.22781431015561
field max 38.927145572044
attr source  minSNIR
attr title  "Min SNIR, histogram"
bin	-INF	0
bin	-18.855565295664	0
bin	-16.287444812655	0
bin	-13.719324329645	0
bin	-11.151203846636	0
bin	-8.583083363627	0
bin	-6.0149628806178	0
bin	-3.4468423976086	0
bin	-0.87872191459937	14
bin	1.6893985684098	376
bin	4.2575190514191	574
bin	6.8256395344283	5
bin	9.3937600174375	3
bin	11.961880500447	564
bin	14.530000983456	1
bin	17.098121466465	396
bin	19.666241949474	0
bin	22.234362432484	3
bin	24.802482915493	2
bin	27.370603398502	0
bin	29.938723881511	0
bin	32.50684436452	0
bin	35.07496484753	0
bin	37.643085330539	3
bin	40.211205813548	0
bin	42.779326296557	0
bin	45.347446779567	0
bin	47.915567262576	0
bin	50.483687745585	0
bin	53.051808228594	0
bin	55.619928711603	0
bin	58.188049194613	0
scalar car_host_40.hostB4.wlan[0].radio 	transmissionState:count 	20
attr interpolationmode  sample-hold
attr source  transmissionStateChanged
attr title  "Radio transmission state, count"
scalar car_host_40.hostB4.wlan[0].radio 	receptionState:count 	3918
attr interpolationmode  sample-hold
attr source  receptionStateChanged
attr title  "Radio reception state, count"
scalar car_host_40.hostB4.wlan[0].radio 	radioMode:count 	12
attr interpolationmode  sample-hold
attr source  radioModeChanged
attr title  "Radio mode, count"
scalar car_host_40.hostC1.lo0.lo 	droppedPkBitError:count 	0
attr interpolationmode  none
attr source  dropPkBitError
attr title  "packets dropped/bit error, count"
scalar car_host_40.hostC1.lo0.lo 	droppedPkBitError:sum(packetBytes) 	0
attr interpolationmode  none
attr source  dropPkBitError
attr title  "packets dropped/bit error, sum(packetBytes)"
scalar car_host_40.hostC1.lo0.lo 	rcvdPkFromHL:count 	0
attr interpolationmode  none
attr source  packetReceivedFromUpper
attr title  "packets received from higher layer, count"
scalar car_host_40.hostC1.lo0.lo 	rcvdPkFromHL:sum(packetBytes) 	0
attr interpolationmode  none
attr source  packetReceivedFromUpper
attr title  "packets received from higher layer, sum(packetBytes)"
scalar car_host_40.hostC1.lo0.lo 	passedUpPk:count 	0
attr interpolationmode  none
attr source  packetSentToUpper
attr title  "packets passed to higher layer, count"
scalar car_host_40.hostC1.lo0.lo 	passedUpPk:sum(packetBytes) 	0
attr interpolationmode  none
attr source  packetSentToUpper
attr title  "packets passed to higher layer, sum(packetBytes)"
scalar car_host_40.hostC1.wlan[0].mac 	numRetry 	0
scalar car_host_40.hostC1.wlan[0].mac 	numSentWithoutRetry 	0
scalar car_host_40.hostC1.wlan[0].mac 	numGivenUp 	0
scalar car_host_40.hostC1.wlan[0].mac 	numCollision 	19
scalar car_host_40.hostC1.wlan[0].mac 	numSent 	0
scalar car_host_40.hostC1.wlan[0].mac 	numReceived 	0
scalar car_host_40.hostC1.wlan[0].mac 	numSentBroadcast 	3
scalar car_host_40.hostC1.wlan[0].mac 	numReceivedBroadcast 	33
statistic car_host_40.hostC1.wlan[0].radio 	symbolErrorRate:histogram
field count 703
field mean 0.00084730132397215
field stddev 0.01149397408072
field sum 0.59565283075242
field sqrsum 0.093246928430248
field min 2.7193951414361e-021
field max 0.21725045994333
attr source  symbolErrorRate
attr title  "Symbol error rate, histogram"
bin	-INF	0
bin	-0.10862522997166	0
bin	-0.094141865975441	0
bin	-0.07965850197922	0
bin	-0.065175137982998	0
bin	-0.050691773986776	0
bin	-0.036208409990554	0
bin	-0.021725045994333	0
bin	-0.0072416819981109	693
bin	0.0072416819981109	5
bin	0.021725045994333	3
bin	0.036208409990554	0
bin	0.050691773986776	0
bin	0.065175137982998	0
bin	0.07965850197922	0
bin	0.094141865975441	0
bin	0.10862522997166	0
bin	0.12310859396789	0
bin	0.13759195796411	0
bin	0.15207532196033	0
bin	0.16655868595655	0
bin	0.18104204995277	0
bin	0.19552541394899	1
bin	0.21000877794522	1
bin	0.22449214194144	0
bin	0.23897550593766	0
bin	0.25345886993388	0
bin	0.2679422339301	0
bin	0.28242559792632	0
bin	0.29690896192255	0
bin	0.31139232591877	0
bin	0.32587568991499	0
statistic car_host_40.hostC1.wlan[0].radio 	bitErrorRate:histogram
field count 703
field mean 0.00084730132397215
field stddev 0.01149397408072
field sum 0.59565283075242
field sqrsum 0.093246928430248
field min 2.7193951414361e-021
field max 0.21725045994333
attr source  bitErrorRate
attr title  "Bit error rate, histogram"
bin	-INF	0
bin	-0.10862522997166	0
bin	-0.094141865975441	0
bin	-0.07965850197922	0
bin	-0.065175137982998	0
bin	-0.050691773986776	0
bin	-0.036208409990554	0
bin	-0.021725045994333	0
bin	-0.0072416819981109	693
bin	0.0072416819981109	5
bin	0.021725045994333	3
bin	0.036208409990554	0
bin	0.050691773986776	0
bin	0.065175137982998	0
bin	0.07965850197922	0
bin	0.094141865975441	0
bin	0.10862522997166	0
bin	0.12310859396789	0
bin	0.13759195796411	0
bin	0.15207532196033	0
bin	0.16655868595655	0
bin	0.18104204995277	0
bin	0.19552541394899	1
bin	0.21000877794522	1
bin	0.22449214194144	0
bin	0.23897550593766	0
bin	0.25345886993388	0
bin	0.2679422339301	0
bin	0.28242559792632	0
bin	0.29690896192255	0
bin	0.31139232591877	0
bin	0.32587568991499	0
statistic car_host_40.hostC1.wlan[0].radio 	packetErrorRate:histogram
field count 703
field mean 0.02091045584315
field stddev 0.13461230518878
field sum 14.700050457734
field sqrsum 13.027956597171
field min 0
field max 1
attr source  packetErrorRate
attr title  "Packet error rate, histogram"
bin	-INF	0
bin	-0.5	0
bin	-0.43333333333333	0
bin	-0.36666666666667	0
bin	-0.3	0
bin	-0.23333333333333	0
bin	-0.16666666666667	0
bin	-0.1	0
bin	-0.033333333333333	683
bin	0.033333333333333	2
bin	0.1	1
bin	0.16666666666667	0
bin	0.23333333333333	0
bin	0.3	1
bin	0.36666666666667	3
bin	0.43333333333333	0
bin	0.5	0
bin	0.56666666666667	0
bin	0.63333333333333	0
bin	0.7	0
bin	0.76666666666667	0
bin	0.83333333333333	1
bin	0.9	2
bin	0.96666666666667	10
bin	1.0333333333333	0
bin	1.1	0
bin	1.1666666666667	0
bin	1.2333333333333	0
bin	1.3	0
bin	1.3666666666667	0
bin	1.4333333333333	0
bin	1.5	0
statistic car_host_40.hostC1.wlan[0].radio 	minSNIR:histogram
field count 703
field mean 14.402412885753
field stddev 4.7158465166732
field sum 10124.896258685
field sqrsum 161434.86061791
field min 0.15269058506234
field max 22.091590166098
attr source  minSNIR
attr title  "Min SNIR, histogram"
bin	-INF	0
bin	-10.816759205456	0
bin	-9.3541659000532	0
bin	-7.8915725946508	0
bin	-6.4289792892484	0
bin	-4.966385983846	0
bin	-3.5037926784436	0
bin	-2.0411993730412	0
bin	-0.57860606763885	2
bin	0.88398723776354	11
bin	2.3465805431659	13
bin	3.8091738485683	9
bin	5.2717671539707	3
bin	6.7343604593731	5
bin	8.1969537647755	3
bin	9.6595470701778	3
bin	11.12214037558	355
bin	12.584733680983	1
bin	14.047326986385	0
bin	15.509920291787	1
bin	16.97251359719	0
bin	18.435106902592	295
bin	19.897700207995	0
bin	21.360293513397	2
bin	22.822886818799	0
bin	24.285480124202	0
bin	25.748073429604	0
bin	27.210666735006	0
bin	28.673260040409	0
bin	30.135853345811	0
bin	31.598446651214	0
bin	33.061039956616	0
scalar car_host_40.hostC1.wlan[0].radio 	transmissionState:count 	12
attr interpolationmode  sample-hold
attr source  transmissionStateChanged
attr title  "Radio transmission state, count"
scalar car_host_40.hostC1.wlan[0].radio 	receptionState:count 	2166
attr interpolationmode  sample-hold
attr source  receptionStateChanged
attr title  "Radio reception state, count"
scalar car_host_40.hostC1.wlan[0].radio 	radioMode:count 	8
attr interpolationmode  sample-hold
attr source  radioModeChanged
attr title  "Radio mode, count"
scalar car_host_40.hostC2.lo0.lo 	droppedPkBitError:count 	0
attr interpolationmode  none
attr source  dropPkBitError
attr title  "packets dropped/bit error, count"
scalar car_host_40.hostC2.lo0.lo 	droppedPkBitError:sum(packetBytes) 	0
attr interpolationmode  none
attr source  dropPkBitError
attr title  "packets dropped/bit error, sum(packetBytes)"
scalar car_host_40.hostC2.lo0.lo 	rcvdPkFromHL:count 	0
attr interpolationmode  none
attr source  packetReceivedFromUpper
attr title  "packets received from higher layer, count"
scalar car_host_40.hostC2.lo0.lo 	rcvdPkFromHL:sum(packetBytes) 	0
attr interpolationmode  none
attr source  packetReceivedFromUpper
attr title  "packets received from higher layer, sum(packetBytes)"
scalar car_host_40.hostC2.lo0.lo 	passedUpPk:count 	0
attr interpolationmode  none
attr source  packetSentToUpper
attr title  "packets passed to higher layer, count"
scalar car_host_40.hostC2.lo0.lo 	passedUpPk:sum(packetBytes) 	0
attr interpolationmode  none
attr source  packetSentToUpper
attr title  "packets passed to higher layer, sum(packetBytes)"
scalar car_host_40.hostC2.wlan[0].mac 	numRetry 	0
scalar car_host_40.hostC2.wlan[0].mac 	numSentWithoutRetry 	0
scalar car_host_40.hostC2.wlan[0].mac 	numGivenUp 	0
scalar car_host_40.hostC2.wlan[0].mac 	numCollision 	12
scalar car_host_40.hostC2.wlan[0].mac 	numSent 	0
scalar car_host_40.hostC2.wlan[0].mac 	numReceived 	0
scalar car_host_40.hostC2.wlan[0].mac 	numSentBroadcast 	4
scalar car_host_40.hostC2.wlan[0].mac 	numReceivedBroadcast 	29
statistic car_host_40.hostC2.wlan[0].radio 	symbolErrorRate:histogram
field count 757
field mean 0.00029663442607336
field stddev 0.0040369593184963
field sum 0.22455226053753
field sqrsum 0.012387172578559
field min 7.4714648210145e-024
field max 0.094729608241817
attr source  symbolErrorRate
attr title  "Symbol error rate, histogram"
bin	-INF	0
bin	-0.047364804120909	0
bin	-0.041049496904787	0
bin	-0.034734189688666	0
bin	-0.028418882472545	0
bin	-0.022103575256424	0
bin	-0.015788268040303	0
bin	-0.0094729608241817	0
bin	-0.0031576536080606	748
bin	0.0031576536080606	4
bin	0.0094729608241817	2
bin	0.015788268040303	0
bin	0.022103575256424	0
bin	0.028418882472545	1
bin	0.034734189688666	0
bin	0.041049496904787	1
bin	0.047364804120909	0
bin	0.05368011133703	0
bin	0.059995418553151	0
bin	0.066310725769272	0
bin	0.072626032985393	0
bin	0.078941340201514	0
bin	0.085256647417635	0
bin	0.091571954633757	1
bin	0.097887261849878	0
bin	0.104202569066	0
bin	0.11051787628212	0
bin	0.11683318349824	0
bin	0.12314849071436	0
bin	0.12946379793048	0
bin	0.1357791051466	0
bin	0.14209441236273	0
statistic car_host_40.hostC2.wlan[0].radio 	bitErrorRate:histogram
field count 757
field mean 0.00029663442607336
field stddev 0.0040369593184963
field sum 0.22455226053753
field sqrsum 0.012387172578559
field min 7.4714648210145e-024
field max 0.094729608241817
attr source  bitErrorRate
attr title  "Bit error rate, histogram"
bin	-INF	0
bin	-0.047364804120909	0
bin	-0.041049496904787	0
bin	-0.034734189688666	0
bin	-0.028418882472545	0
bin	-0.022103575256424	0
bin	-0.015788268040303	0
bin	-0.0094729608241817	0
bin	-0.0031576536080606	748
bin	0.0031576536080606	4
bin	0.0094729608241817	2
bin	0.015788268040303	0
bin	0.022103575256424	0
bin	0.028418882472545	1
bin	0.034734189688666	0
bin	0.041049496904787	1
bin	0.047364804120909	0
bin	0.05368011133703	0
bin	0.059995418553151	0
bin	0.066310725769272	0
bin	0.072626032985393	0
bin	0.078941340201514	0
bin	0.085256647417635	0
bin	0.091571954633757	1
bin	0.097887261849878	0
bin	0.104202569066	0
bin	0.11051787628212	0
bin	0.11683318349824	0
bin	0.12314849071436	0
bin	0.12946379793048	0
bin	0.1357791051466	0
bin	0.14209441236273	0
statistic car_host_40.hostC2.wlan[0].radio 	packetErrorRate:histogram
field count 757
field mean 0.014982261792674
field stddev 0.11265261341225
field sum 11.341572177054
field sqrsum 9.7640245528055
field min 0
field max 1
attr source  packetErrorRate
attr title  "Packet error rate, histogram"
bin	-INF	0
bin	-0.5	0
bin	-0.43333333333333	0
bin	-0.36666666666667	0
bin	-0.3	0
bin	-0.23333333333333	0
bin	-0.16666666666667	0
bin	-0.1	0
bin	-0.033333333333333	738
bin	0.033333333333333	4
bin	0.1	1
bin	0.16666666666667	2
bin	0.23333333333333	0
bin	0.3	0
bin	0.36666666666667	0
bin	0.43333333333333	0
bin	0.5	2
bin	0.56666666666667	0
bin	0.63333333333333	0
bin	0.7	0
bin	0.76666666666667	1
bin	0.83333333333333	1
bin	0.9	2
bin	0.96666666666667	6
bin	1.0333333333333	0
bin	1.1	0
bin	1.1666666666667	0
bin	1.2333333333333	0
bin	1.3	0
bin	1.3666666666667	0
bin	1.4333333333333	0
bin	1.5	0
statistic car_host_40.hostC2.wlan[0].radio 	minSNIR:histogram
field count 757
field mean 23.437683847887
field stddev 4.4927461462356
field sum 17742.326672851
field sqrsum 431098.7278427
field min 0.43045446125665
field max 25.009737503719
attr source  minSNIR
attr title  "Min SNIR, histogram"
bin	-INF	0
bin	-11.859187059975	0
bin	-10.220568190477	0
bin	-8.5819493209797	0
bin	-6.9433304514821	0
bin	-5.3047115819846	0
bin	-3.6660927124871	0
bin	-2.0274738429896	0
bin	-0.3888549734921	3
bin	1.2497638960054	11
bin	2.8883827655029	6
bin	4.5270016350004	2
bin	6.1656205044979	5
bin	7.8042393739954	3
bin	9.442858243493	8
bin	11.08147711299	3
bin	12.720095982488	3
bin	14.358714851985	5
bin	15.997333721483	0
bin	17.635952590981	0
bin	19.274571460478	0
bin	20.913190329976	0
bin	22.551809199473	353
bin	24.190428068971	355
bin	25.829046938468	0
bin	27.467665807966	0
bin	29.106284677463	0
bin	30.744903546961	0
bin	32.383522416458	0
bin	34.022141285956	0
bin	35.660760155453	0
bin	37.299379024951	0
scalar car_host_40.hostC2.wlan[0].radio 	transmissionState:count 	16
attr interpolationmode  sample-hold
attr source  transmissionStateChanged
attr title  "Radio transmission state, count"
scalar car_host_40.hostC2.wlan[0].radio 	receptionState:count 	2937
attr interpolationmode  sample-hold
attr source  receptionStateChanged
attr title  "Radio reception state, count"
scalar car_host_40.hostC2.wlan[0].radio 	radioMode:count 	10
attr interpolationmode  sample-hold
attr source  radioModeChanged
attr title  "Radio mode, count"
scalar car_host_40.hostC3.lo0.lo 	droppedPkBitError:count 	0
attr interpolationmode  none
attr source  dropPkBitError
attr title  "packets dropped/bit error, count"
scalar car_host_40.hostC3.lo0.lo 	droppedPkBitError:sum(packetBytes) 	0
attr interpolationmode  none
attr source  dropPkBitError
attr title  "packets dropped/bit error, sum(packetBytes)"
scalar car_host_40.hostC3.lo0.lo 	rcvdPkFromHL:count 	0
attr interpolationmode  none
attr source  packetReceivedFromUpper
attr title  "packets received from higher layer, count"
scalar car_host_40.hostC3.lo0.lo 	rcvdPkFromHL:sum(packetBytes) 	0
attr interpolationmode  none
attr source  packetReceivedFromUpper
attr title  "packets received from higher layer, sum(packetBytes)"
scalar car_host_40.hostC3.lo0.lo 	passedUpPk:count 	0
attr interpolationmode  none
attr source  packetSentToUpper
attr title  "packets passed to higher layer, count"
scalar car_host_40.hostC3.lo0.lo 	passedUpPk:sum(packetBytes) 	0
attr interpolationmode  none
attr source  packetSentToUpper
attr title  "packets passed to higher layer, sum(packetBytes)"
scalar car_host_40.hostC3.wlan[0].mac 	numRetry 	0
scalar car_host_40.hostC3.wlan[0].mac 	numSentWithoutRetry 	0
scalar car_host_40.hostC3.wlan[0].mac 	numGivenUp 	0
scalar car_host_40.hostC3.wlan[0].mac 	numCollision 	24
scalar car_host_40.hostC3.wlan[0].mac 	numSent 	0
scalar car_host_40.hostC3.wlan[0].mac 	numReceived 	0
scalar car_host_40.hostC3.wlan[0].mac 	numSentBroadcast 	3
scalar car_host_40.hostC3.wlan[0].mac 	numReceivedBroadcast 	27
statistic car_host_40.hostC3.wlan[0].radio 	symbolErrorRate:histogram
field count 398
field mean 0.00039683853850558
field stddev 0.0039703973199914
field sum 0.15794173832522
field sqrsum 0.0063210071554081
field min 1.4737696037048e-016
field max 0.073725435894683
attr source  symbolErrorRate
attr title  "Symbol error rate, histogram"
bin	-INF	0
bin	-0.036862717947341	0
bin	-0.031947688887696	0
bin	-0.02703265982805	0
bin	-0.022117630768405	0
bin	-0.017202601708759	0
bin	-0.012287572649114	0
bin	-0.0073725435894681	0
bin	-0.0024575145298226	387
bin	0.0024575145298229	6
bin	0.0073725435894684	2
bin	0.012287572649114	1
bin	0.01720260170876	1
bin	0.022117630768405	0
bin	0.027032659828051	0
bin	0.031947688887696	0
bin	0.036862717947342	0
bin	0.041777747006987	0
bin	0.046692776066633	0
bin	0.051607805126278	0
bin	0.056522834185924	0
bin	0.061437863245569	0
bin	0.066352892305215	0
bin	0.07126792136486	1
bin	0.076182950424506	0
bin	0.081097979484151	0
bin	0.086013008543797	0
bin	0.090928037603442	0
bin	0.095843066663088	0
bin	0.10075809572273	0
bin	0.10567312478238	0
bin	0.11058815384202	0
statistic car_host_40.hostC3.wlan[0].radio 	bitErrorRate:histogram
field count 398
field mean 0.00039683853850558
field stddev 0.0039703973199914
field sum 0.15794173832522
field sqrsum 0.0063210071554081
field min 1.4737696037048e-016
field max 0.073725435894683
attr source  bitErrorRate
attr title  "Bit error rate, histogram"
bin	-INF	0
bin	-0.036862717947341	0
bin	-0.031947688887696	0
bin	-0.02703265982805	0
bin	-0.022117630768405	0
bin	-0.017202601708759	0
bin	-0.012287572649114	0
bin	-0.0073725435894681	0
bin	-0.0024575145298226	387
bin	0.0024575145298229	6
bin	0.0073725435894684	2
bin	0.012287572649114	1
bin	0.01720260170876	1
bin	0.022117630768405	0
bin	0.027032659828051	0
bin	0.031947688887696	0
bin	0.036862717947342	0
bin	0.041777747006987	0
bin	0.046692776066633	0
bin	0.051607805126278	0
bin	0.056522834185924	0
bin	0.061437863245569	0
bin	0.066352892305215	0
bin	0.07126792136486	1
bin	0.076182950424506	0
bin	0.081097979484151	0
bin	0.086013008543797	0
bin	0.090928037603442	0
bin	0.095843066663088	0
bin	0.10075809572273	0
bin	0.10567312478238	0
bin	0.11058815384202	0
statistic car_host_40.hostC3.wlan[0].radio 	packetErrorRate:histogram
field count 398
field mean 0.04968623939222
field stddev 0.16973613757758
field sum 19.775123278103
field sqrsum 12.420262999909
field min 5.3290705182008e-014
field max 1
attr source  packetErrorRate
attr title  "Packet error rate, histogram"
bin	-INF	0
bin	-0.49999999999992	0
bin	-0.43333333333326	0
bin	-0.36666666666659	0
bin	-0.29999999999993	0
bin	-0.23333333333327	0
bin	-0.1666666666666	0
bin	-0.099999999999941	0
bin	-0.033333333333278	373
bin	0.033333333333385	4
bin	0.10000000000005	0
bin	0.16666666666671	0
bin	0.23333333333337	2
bin	0.30000000000004	1
bin	0.3666666666667	0
bin	0.43333333333336	2
bin	0.50000000000003	0
bin	0.56666666666669	1
bin	0.63333333333335	2
bin	0.70000000000002	4
bin	0.76666666666668	0
bin	0.83333333333334	3
bin	0.90000000000001	1
bin	0.96666666666667	5
bin	1.0333333333333	0
bin	1.1	0
bin	1.1666666666667	0
bin	1.2333333333333	0
bin	1.3	0
bin	1.3666666666666	0
bin	1.4333333333333	0
bin	1.5	0
statistic car_host_40.hostC3.wlan[0].radio 	minSNIR:histogram
field count 398
field mean 5.4120642891871
field stddev 1.3257520827063
field sum 2154.0015870965
field sqrsum 12355.369646543
field min 0.52460647078339
field max 16.709511951852
attr source  minSNIR
attr title  "Min SNIR, histogram"
bin	-INF	0
bin	-7.567846269751	0
bin	-6.4888525710131	0
bin	-5.4098588722752	0
bin	-4.3308651735373	0
bin	-3.2518714747993	0
bin	-2.1728777760614	0
bin	-1.0938840773235	0
bin	-0.014890378585568	2
bin	1.0641033201524	11
bin	2.1430970188903	3
bin	3.2220907176282	9
bin	4.3010844163661	4
bin	5.380078115104	357
bin	6.459071813842	5
bin	7.5380655125799	0
bin	8.6170592113178	0
bin	9.6960529100557	3
bin	10.775046608794	1
bin	11.854040307532	0
bin	12.933034006269	0
bin	14.012027705007	1
bin	15.091021403745	1
bin	16.170015102483	1
bin	17.249008801221	0
bin	18.328002499959	0
bin	19.406996198697	0
bin	20.485989897435	0
bin	21.564983596173	0
bin	22.643977294911	0
bin	23.722970993649	0
bin	24.801964692387	0
scalar car_host_40.hostC3.wlan[0].radio 	transmissionState:count 	12
attr interpolationmode  sample-hold
attr source  transmissionStateChanged
attr title  "Radio transmission state, count"
scalar car_host_40.hostC3.wlan[0].radio 	receptionState:count 	1453
attr interpolationmode  sample-hold
attr source  receptionStateChanged
attr title  "Radio reception state, count"
scalar car_host_40.hostC3.wlan[0].radio 	radioMode:count 	8
attr interpolationmode  sample-hold
attr source  radioModeChanged
attr title  "Radio mode, count"
scalar car_host_40.hostC4.lo0.lo 	droppedPkBitError:count 	0
attr interpolationmode  none
attr source  dropPkBitError
attr title  "packets dropped/bit error, count"
scalar car_host_40.hostC4.lo0.lo 	droppedPkBitError:sum(packetBytes) 	0
attr interpolationmode  none
attr source  dropPkBitError
attr title  "packets dropped/bit error, sum(packetBytes)"
scalar car_host_40.hostC4.lo0.lo 	rcvdPkFromHL:count 	0
attr interpolationmode  none
attr source  packetReceivedFromUpper
attr title  "packets received from higher layer, count"
scalar car_host_40.hostC4.lo0.lo 	rcvdPkFromHL:sum(packetBytes) 	0
attr interpolationmode  none
attr source  packetReceivedFromUpper
attr title  "packets received from higher layer, sum(packetBytes)"
scalar car_host_40.hostC4.lo0.lo 	passedUpPk:count 	0
attr interpolationmode  none
attr source  packetSentToUpper
attr title  "packets passed to higher layer, count"
scalar car_host_40.hostC4.lo0.lo 	passedUpPk:sum(packetBytes) 	0
attr interpolationmode  none
attr source  packetSentToUpper
attr title  "packets passed to higher layer, sum(packetBytes)"
scalar car_host_40.hostC4.wlan[0].mac 	numRetry 	0
scalar car_host_40.hostC4.wlan[0].mac 	numSentWithoutRetry 	0
scalar car_host_40.hostC4.wlan[0].mac 	numGivenUp 	0
scalar car_host_40.hostC4.wlan[0].mac 	numCollision 	71
scalar car_host_40.hostC4.wlan[0].mac 	numSent 	357
scalar car_host_40.hostC4.wlan[0].mac 	numReceived 	357
scalar car_host_40.hostC4.wlan[0].mac 	numSentBroadcast 	4
scalar car_host_40.hostC4.wlan[0].mac 	numReceivedBroadcast 	32
statistic car_host_40.hostC4.wlan[0].radio 	symbolErrorRate:histogram
field count 704
field mean 0.00073809489317089
field stddev 0.010149247134853
field sum 0.5196188047923
field sqrsum 0.072797601821447
field min 1.0410809724929e-032
field max 0.24855424983289
attr source  symbolErrorRate
attr title  "Symbol error rate, histogram"
bin	-INF	0
bin	-0.12427712491644	0
bin	-0.10770684159425	0
bin	-0.091136558272059	0
bin	-0.074566274949866	0
bin	-0.057995991627674	0
bin	-0.041425708305481	0
bin	-0.024855424983289	0
bin	-0.0082851416610963	696
bin	0.0082851416610963	4
bin	0.024855424983289	1
bin	0.041425708305481	0
bin	0.057995991627674	2
bin	0.074566274949866	0
bin	0.091136558272059	0
bin	0.10770684159425	0
bin	0.12427712491644	0
bin	0.14084740823864	0
bin	0.15741769156083	0
bin	0.17398797488302	0
bin	0.19055825820521	0
bin	0.20712854152741	0
bin	0.2236988248496	0
bin	0.24026910817179	1
bin	0.25683939149398	0
bin	0.27340967481618	0
bin	0.28997995813837	0
bin	0.30655024146056	0
bin	0.32312052478275	0
bin	0.33969080810495	0
bin	0.35626109142714	0
bin	0.37283137474933	0
statistic car_host_40.hostC4.wlan[0].radio 	bitErrorRate:histogram
field count 704
field mean 0.00073809489317089
field stddev 0.010149247134853
field sum 0.5196188047923
field sqrsum 0.072797601821447
field min 1.0410809724929e-032
field max 0.24855424983289
attr source  bitErrorRate
attr title  "Bit error rate, histogram"
bin	-INF	0
bin	-0.12427712491644	0
bin	-0.10770684159425	0
bin	-0.091136558272059	0
bin	-0.074566274949866	0
bin	-0.057995991627674	0
bin	-0.041425708305481	0
bin	-0.024855424983289	0
bin	-0.0082851416610963	696
bin	0.0082851416610963	4
bin	0.024855424983289	1
bin	0.041425708305481	0
bin	0.057995991627674	2
bin	0.074566274949866	0
bin	0.091136558272059	0
bin	0.10770684159425	0
bin	0.12427712491644	0
bin	0.14084740823864	0
bin	0.15741769156083	0
bin	0.17398797488302	0
bin	0.19055825820521	0
bin	0.20712854152741	0
bin	0.2236988248496	0
bin	0.24026910817179	1
bin	0.25683939149398	0
bin	0.27340967481618	0
bin	0.28997995813837	0
bin	0.30655024146056	0
bin	0.32312052478275	0
bin	0.33969080810495	0
bin	0.35626109142714	0
bin	0.37283137474933	0
[...]
bin	10.410524416022	4
bin	14.323434656495	4
bin	18.236344896969	0
bin	22.149255137442	2
bin	26.062165377915	0
bin	29.975075618388	0
bin	33.887985858861	1
bin	37.800896099334	1
bin	41.713806339808	0
bin	45.626716580281	1
bin	49.539626820754	0
bin	53.452537061227	0
bin	57.3654473017	295
bin	61.278357542173	0
bin	65.191267782646	0
bin	69.10417802312	0
bin	73.017088263593	0
bin	76.929998504066	0
bin	80.842908744539	0
bin	84.755818985012	0
bin	88.668729225485	0
scalar car_host_40.hoste6.wlan[0].radio 	transmissionState:count 	8
attr interpolationmode  sample-hold
attr source  transmissionStateChanged
attr title  "Radio transmission state, count"
scalar car_host_40.hoste6.wlan[0].radio 	receptionState:count 	1428
attr interpolationmode  sample-hold
attr source  receptionStateChanged
attr title  "Radio reception state, count"
scalar car_host_40.hoste6.wlan[0].radio 	radioMode:count 	6
attr interpolationmode  sample-hold
attr source  radioModeChanged
attr title  "Radio mode, count"
scalar car_host_40.hoste7.lo0.lo 	droppedPkBitError:count 	0
attr interpolationmode  none
attr source  dropPkBitError
attr title  "packets dropped/bit error, count"
scalar car_host_40.hoste7.lo0.lo 	droppedPkBitError:sum(packetBytes) 	0
attr interpolationmode  none
attr source  dropPkBitError
attr title  "packets dropped/bit error, sum(packetBytes)"
scalar car_host_40.hoste7.lo0.lo 	rcvdPkFromHL:count 	0
attr interpolationmode  none
attr source  packetReceivedFromUpper
attr title  "packets received from higher layer, count"
scalar car_host_40.hoste7.lo0.lo 	rcvdPkFromHL:sum(packetBytes) 	0
attr interpolationmode  none
attr source  packetReceivedFromUpper
attr title  "packets received from higher layer, sum(packetBytes)"
scalar car_host_40.hoste7.lo0.lo 	passedUpPk:count 	0
attr interpolationmode  none
attr source  packetSentToUpper
attr title  "packets passed to higher layer, count"
scalar car_host_40.hoste7.lo0.lo 	passedUpPk:sum(packetBytes) 	0
attr interpolationmode  none
attr source  packetSentToUpper
attr title  "packets passed to higher layer, sum(packetBytes)"
scalar car_host_40.hoste7.wlan[0].mac 	numRetry 	0
scalar car_host_40.hoste7.wlan[0].mac 	numSentWithoutRetry 	0
scalar car_host_40.hoste7.wlan[0].mac 	numGivenUp 	0
scalar car_host_40.hoste7.wlan[0].mac 	numCollision 	7
scalar car_host_40.hoste7.wlan[0].mac 	numSent 	0
scalar car_host_40.hoste7.wlan[0].mac 	numReceived 	0
scalar car_host_40.hoste7.wlan[0].mac 	numSentBroadcast 	2
scalar car_host_40.hoste7.wlan[0].mac 	numReceivedBroadcast 	18
statistic car_host_40.hoste7.wlan[0].radio 	symbolErrorRate:histogram
field count 321
field mean 0.00029798174342531
field stddev 0.0034990780885783
field sum 0.095652139639525
field sqrsum 0.0039464377817221
field min 3.596500021421e-045
field max 0.059766808119008
attr source  symbolErrorRate
attr title  "Symbol error rate, histogram"
bin	-INF	0
bin	-0.029883404059504	0
bin	-0.025898950184904	0
bin	-0.021914496310303	0
bin	-0.017930042435703	0
bin	-0.013945588561102	0
bin	-0.0099611346865014	0
bin	-0.0059766808119008	0
bin	-0.0019922269373003	316
bin	0.0019922269373003	1
bin	0.0059766808119008	2
bin	0.0099611346865014	0
bin	0.013945588561102	1
bin	0.017930042435703	0
bin	0.021914496310303	0
bin	0.025898950184904	0
bin	0.029883404059504	0
bin	0.033867857934105	0
bin	0.037852311808705	0
bin	0.041836765683306	0
bin	0.045821219557906	0
bin	0.049805673432507	0
bin	0.053790127307108	0
bin	0.057774581181708	1
bin	0.061759035056309	0
bin	0.065743488930909	0
bin	0.06972794280551	0
bin	0.07371239668011	0
bin	0.077696850554711	0
bin	0.081681304429312	0
bin	0.085665758303912	0
bin	0.089650212178513	0
statistic car_host_40.hoste7.wlan[0].radio 	bitErrorRate:histogram
field count 321
field mean 0.00029798174342531
field stddev 0.0034990780885783
field sum 0.095652139639525
field sqrsum 0.0039464377817221
field min 3.596500021421e-045
field max 0.059766808119008
attr source  bitErrorRate
attr title  "Bit error rate, histogram"
bin	-INF	0
bin	-0.029883404059504	0
bin	-0.025898950184904	0
bin	-0.021914496310303	0
bin	-0.017930042435703	0
bin	-0.013945588561102	0
bin	-0.0099611346865014	0
bin	-0.0059766808119008	0
bin	-0.0019922269373003	316
bin	0.0019922269373003	1
bin	0.0059766808119008	2
bin	0.0099611346865014	0
bin	0.013945588561102	1
bin	0.017930042435703	0
bin	0.021914496310303	0
bin	0.025898950184904	0
bin	0.029883404059504	0
bin	0.033867857934105	0
bin	0.037852311808705	0
bin	0.041836765683306	0
bin	0.045821219557906	0
bin	0.049805673432507	0
bin	0.053790127307108	0
bin	0.057774581181708	1
bin	0.061759035056309	0
bin	0.065743488930909	0
bin	0.06972794280551	0
bin	0.07371239668011	0
bin	0.077696850554711	0
bin	0.081681304429312	0
bin	0.085665758303912	0
bin	0.089650212178513	0
statistic car_host_40.hoste7.wlan[0].radio 	packetErrorRate:histogram
field count 321
field mean 0.019543149349433
field stddev 0.12107577781633
field sum 6.273350941168
field sqrsum 4.8135911059899
field min 0
field max 0.99999999999986
attr source  packetErrorRate
attr title  "Packet error rate, histogram"
bin	-INF	0
bin	-0.49999999999993	0
bin	-0.43333333333327	0
bin	-0.36666666666661	0
bin	-0.29999999999996	0
bin	-0.2333333333333	0
bin	-0.16666666666664	0
bin	-0.099999999999986	0
bin	-0.033333333333329	309
bin	0.033333333333329	1
bin	0.099999999999986	1
bin	0.16666666666664	3
bin	0.2333333333333	0
bin	0.29999999999996	0
bin	0.36666666666661	0
bin	0.43333333333327	2
bin	0.49999999999993	0
bin	0.56666666666659	0
bin	0.63333333333324	1
bin	0.6999999999999	0
bin	0.76666666666656	0
bin	0.83333333333321	0
bin	0.89999999999987	2
bin	0.96666666666653	2
bin	1.0333333333332	0
bin	1.0999999999998	0
bin	1.1666666666665	0
bin	1.2333333333332	0
bin	1.2999999999998	0
bin	1.3666666666665	0
bin	1.4333333333331	0
bin	1.4999999999998	0
statistic car_host_40.hoste7.wlan[0].radio 	minSNIR:histogram
field count 321
field mean 10.885485120279
field stddev 3.043074728263
field sum 3494.2407236097
field sqrsum 40999.802620101
field min 0.60585530637622
field max 49.384730950242
attr source  minSNIR
attr title  "Min SNIR, histogram"
bin	-INF	0
bin	-23.783582515557	0
bin	-20.531657472632	0
bin	-17.279732429708	0
bin	-14.027807386783	0
bin	-10.775882343859	0
bin	-7.5239573009347	0
bin	-4.2720322580103	0
bin	-1.020107215086	5
bin	2.2318178278384	11
bin	5.4837428707628	4
bin	8.7356679136871	296
bin	11.987592956612	1
bin	15.239517999536	0
bin	18.49144304246	2
bin	21.743368085385	1
bin	24.995293128309	0
bin	28.247218171233	0
bin	31.499143214158	0
bin	34.751068257082	0
bin	38.002993300006	0
bin	41.254918342931	0
bin	44.506843385855	0
bin	47.75876842878	1
bin	51.010693471704	0
bin	54.262618514628	0
bin	57.514543557553	0
bin	60.766468600477	0
bin	64.018393643401	0
bin	67.270318686326	0
bin	70.52224372925	0
bin	73.774168772175	0
scalar car_host_40.hoste7.wlan[0].radio 	transmissionState:count 	8
attr interpolationmode  sample-hold
attr source  transmissionStateChanged
attr title  "Radio transmission state, count"
scalar car_host_40.hoste7.wlan[0].radio 	receptionState:count 	690
attr interpolationmode  sample-hold
attr source  receptionStateChanged
attr title  "Radio reception state, count"
scalar car_host_40.hoste7.wlan[0].radio 	radioMode:count 	6
attr interpolationmode  sample-hold
attr source  radioModeChanged
attr title  "Radio mode, count"
scalar car_host_40.hoste8.lo0.lo 	droppedPkBitError:count 	0
attr interpolationmode  none
attr source  dropPkBitError
attr title  "packets dropped/bit error, count"
scalar car_host_40.hoste8.lo0.lo 	droppedPkBitError:sum(packetBytes) 	0
attr interpolationmode  none
attr source  dropPkBitError
attr title  "packets dropped/bit error, sum(packetBytes)"
scalar car_host_40.hoste8.lo0.lo 	rcvdPkFromHL:count 	0
attr interpolationmode  none
attr source  packetReceivedFromUpper
attr title  "packets received from higher layer, count"
scalar car_host_40.hoste8.lo0.lo 	rcvdPkFromHL:sum(packetBytes) 	0
attr interpolationmode  none
attr source  packetReceivedFromUpper
attr title  "packets received from higher layer, sum(packetBytes)"
scalar car_host_40.hoste8.lo0.lo 	passedUpPk:count 	0
attr interpolationmode  none
attr source  packetSentToUpper
attr title  "packets passed to higher layer, count"
scalar car_host_40.hoste8.lo0.lo 	passedUpPk:sum(packetBytes) 	0
attr interpolationmode  none
attr source  packetSentToUpper
attr title  "packets passed to higher layer, sum(packetBytes)"
scalar car_host_40.hoste8.wlan[0].mac 	numRetry 	0
scalar car_host_40.hoste8.wlan[0].mac 	numSentWithoutRetry 	0
scalar car_host_40.hoste8.wlan[0].mac 	numGivenUp 	0
scalar car_host_40.hoste8.wlan[0].mac 	numCollision 	9
scalar car_host_40.hoste8.wlan[0].mac 	numSent 	0
scalar car_host_40.hoste8.wlan[0].mac 	numReceived 	0
scalar car_host_40.hoste8.wlan[0].mac 	numSentBroadcast 	2
scalar car_host_40.hoste8.wlan[0].mac 	numReceivedBroadcast 	20
statistic car_host_40.hoste8.wlan[0].radio 	symbolErrorRate:histogram
field count 325
field mean 8.3865307826705e-005
field stddev 0.00066722349504661
field sum 0.027256225043679
field sqrsum 0.00014652650202236
field min 1.1820766382854e-088
field max 0.0074166115010486
attr source  symbolErrorRate
attr title  "Symbol error rate, histogram"
bin	-INF	0
bin	-0.0037083057505243	0
bin	-0.0032138649837877	0
bin	-0.0027194242170512	0
bin	-0.0022249834503146	0
bin	-0.001730542683578	0
bin	-0.0012361019168414	0
bin	-0.00074166115010486	0
bin	-0.00024722038336829	316
bin	0.00024722038336829	3
bin	0.00074166115010486	0
bin	0.0012361019168414	1
bin	0.001730542683578	2
bin	0.0022249834503146	0
bin	0.0027194242170512	0
bin	0.0032138649837877	0
bin	0.0037083057505243	0
bin	0.0042027465172609	0
bin	0.0046971872839974	1
bin	0.005191628050734	0
bin	0.0056860688174706	0
bin	0.0061805095842072	0
bin	0.0066749503509437	0
bin	0.0071693911176803	2
bin	0.0076638318844169	0
bin	0.0081582726511535	0
bin	0.00865271341789	0
bin	0.0091471541846266	0
bin	0.0096415949513632	0
bin	0.0101360357181	0
bin	0.010630476484836	0
bin	0.011124917251573	0
statistic car_host_40.hoste8.wlan[0].radio 	bitErrorRate:histogram
field count 325
field mean 8.3865307826705e-005
field stddev 0.00066722349504661
field sum 0.027256225043679
field sqrsum 0.00014652650202236
field min 1.1820766382854e-088
field max 0.0074166115010486
attr source  bitErrorRate
attr title  "Bit error rate, histogram"
bin	-INF	0
bin	-0.0037083057505243	0
bin	-0.0032138649837877	0
bin	-0.0027194242170512	0
bin	-0.0022249834503146	0
bin	-0.001730542683578	0
bin	-0.0012361019168414	0
bin	-0.00074166115010486	0
bin	-0.00024722038336829	316
bin	0.00024722038336829	3
bin	0.00074166115010486	0
bin	0.0012361019168414	1
bin	0.001730542683578	2
bin	0.0022249834503146	0
bin	0.0027194242170512	0
bin	0.0032138649837877	0
bin	0.0037083057505243	0
bin	0.0042027465172609	0
bin	0.0046971872839974	1
bin	0.005191628050734	0
bin	0.0056860688174706	0
bin	0.0061805095842072	0
bin	0.0066749503509437	0
bin	0.0071693911176803	2
bin	0.0076638318844169	0
bin	0.0081582726511535	0
bin	0.00865271341789	0
bin	0.0091471541846266	0
bin	0.0096415949513632	0
bin	0.0101360357181	0
bin	0.010630476484836	0
bin	0.011124917251573	0
statistic car_host_40.hoste8.wlan[0].radio 	packetErrorRate:histogram
field count 325
field mean 0.018172194888975
field stddev 0.10795316693406
field sum 5.9059633389168
field sqrsum 3.8831834621558
field min 0
field max 0.97193524132688
attr source  packetErrorRate
attr title  "Packet error rate, histogram"
bin	-INF	0
bin	-0.48596762066344	0
bin	-0.42117193790832	0
bin	-0.35637625515319	0
bin	-0.29158057239806	0
bin	-0.22678488964294	0
bin	-0.16198920688781	0
bin	-0.097193524132688	0
bin	-0.032397841377563	314
bin	0.032397841377563	2
bin	0.097193524132688	0
bin	0.16198920688781	1
bin	0.22678488964294	1
bin	0.29158057239806	1
bin	0.35637625515319	0
bin	0.42117193790832	0
bin	0.48596762066344	1
bin	0.55076330341857	2
bin	0.61555898617369	0
bin	0.68035466892882	0
bin	0.74515035168394	0
bin	0.80994603443907	0
bin	0.87474171719419	1
bin	0.93953739994932	2
bin	1.0043330827044	0
bin	1.0691287654596	0
bin	1.1339244482147	0
bin	1.1987201309698	0
bin	1.2635158137249	0
bin	1.3283114964801	0
bin	1.3931071792352	0
bin	1.4579028619903	0
statistic car_host_40.hoste8.wlan[0].radio 	minSNIR:histogram
field count 325
field mean 6.8751921418602
field stddev 5.6573003417217
field sum 2234.4374461046
field sqrsum 25731.822049624
field min 1.484042352253
field max 99.273344263718
attr source  minSNIR
attr title  "Min SNIR, histogram"
bin	-INF	0
bin	-47.410608603479	0
bin	-40.891321809382	0
bin	-34.372035015284	0
bin	-27.852748221186	0
bin	-21.333461427089	0
bin	-14.814174632991	0
bin	-8.2948878388934	0
bin	-1.7756010447958	16
bin	4.7436857493019	300
bin	11.2629725434	6
bin	17.782259337497	0
bin	24.301546131595	1
bin	30.820832925692	1
bin	37.34011971979	0
bin	43.859406513888	0
bin	50.378693307985	0
bin	56.897980102083	0
bin	63.417266896181	0
bin	69.936553690278	0
bin	76.455840484376	0
bin	82.975127278474	0
bin	89.494414072571	0
bin	96.013700866669	1
bin	102.53298766077	0
bin	109.05227445486	0
bin	115.57156124896	0
bin	122.09084804306	0
bin	128.61013483716	0
bin	135.12942163126	0
bin	141.64870842535	0
bin	148.16799521945	0
scalar car_host_40.hoste8.wlan[0].radio 	transmissionState:count 	8
attr interpolationmode  sample-hold
attr source  transmissionStateChanged
attr title  "Radio transmission state, count"
scalar car_host_40.hoste8.wlan[0].radio 	receptionState:count 	686
attr interpolationmode  sample-hold
attr source  receptionStateChanged
attr title  "Radio reception state, count"
scalar car_host_40.hoste8.wlan[0].radio 	radioMode:count 	6
attr interpolationmode  sample-hold
attr source  radioModeChanged
attr title  "Radio mode, count"
scalar car_host_40.hoste9.lo0.lo 	droppedPkBitError:count 	0
attr interpolationmode  none
attr source  dropPkBitError
attr title  "packets dropped/bit error, count"
scalar car_host_40.hoste9.lo0.lo 	droppedPkBitError:sum(packetBytes) 	0
attr interpolationmode  none
attr source  dropPkBitError
attr title  "packets dropped/bit error, sum(packetBytes)"
scalar car_host_40.hoste9.lo0.lo 	rcvdPkFromHL:count 	0
attr interpolationmode  none
attr source  packetReceivedFromUpper
attr title  "packets received from higher layer, count"
scalar car_host_40.hoste9.lo0.lo 	rcvdPkFromHL:sum(packetBytes) 	0
attr interpolationmode  none
attr source  packetReceivedFromUpper
attr title  "packets received from higher layer, sum(packetBytes)"
scalar car_host_40.hoste9.lo0.lo 	passedUpPk:count 	0
attr interpolationmode  none
attr source  packetSentToUpper
attr title  "packets passed to higher layer, count"
scalar car_host_40.hoste9.lo0.lo 	passedUpPk:sum(packetBytes) 	0
attr interpolationmode  none
attr source  packetSentToUpper
attr title  "packets passed to higher layer, sum(packetBytes)"
scalar car_host_40.hoste9.wlan[0].mac 	numRetry 	0
scalar car_host_40.hoste9.wlan[0].mac 	numSentWithoutRetry 	0
scalar car_host_40.hoste9.wlan[0].mac 	numGivenUp 	0
scalar car_host_40.hoste9.wlan[0].mac 	numCollision 	8
scalar car_host_40.hoste9.wlan[0].mac 	numSent 	0
scalar car_host_40.hoste9.wlan[0].mac 	numReceived 	0
scalar car_host_40.hoste9.wlan[0].mac 	numSentBroadcast 	2
scalar car_host_40.hoste9.wlan[0].mac 	numReceivedBroadcast 	21
statistic car_host_40.hoste9.wlan[0].radio 	symbolErrorRate:histogram
field count 326
field mean 6.802573281764e-005
field stddev 0.00067631394811656
field sum 0.022176388898551
field sqrsum 0.0001501637459416
field min 2.6267313653456e-068
field max 0.010912346748798
attr source  symbolErrorRate
attr title  "Symbol error rate, histogram"
bin	-INF	0
bin	-0.0054561733743988	0
bin	-0.0047286835911456	0
bin	-0.0040011938078925	0
bin	-0.0032737040246393	0
bin	-0.0025462142413861	0
bin	-0.0018187244581329	0
bin	-0.0010912346748798	0
bin	-0.00036374489162659	319
bin	0.00036374489162659	4
bin	0.0010912346748798	0
bin	0.0018187244581329	0
bin	0.0025462142413861	0
bin	0.0032737040246393	2
bin	0.0040011938078925	0
bin	0.0047286835911456	0
bin	0.0054561733743988	0
bin	0.006183663157652	0
bin	0.0069111529409052	0
bin	0.0076386427241583	0
bin	0.0083661325074115	0
bin	0.0090936222906647	0
bin	0.0098211120739178	0
bin	0.010548601857171	1
bin	0.011276091640424	0
bin	0.012003581423677	0
bin	0.012731071206931	0
bin	0.013458560990184	0
bin	0.014186050773437	0
bin	0.01491354055669	0
bin	0.015641030339943	0
bin	0.016368520123196	0
statistic car_host_40.hoste9.wlan[0].radio 	bitErrorRate:histogram
field count 326
field mean 6.802573281764e-005
field stddev 0.00067631394811656
field sum 0.022176388898551
field sqrsum 0.0001501637459416
field min 2.6267313653456e-068
field max 0.010912346748798
attr source  bitErrorRate
attr title  "Bit error rate, histogram"
bin	-INF	0
bin	-0.0054561733743988	0
bin	-0.0047286835911456	0
bin	-0.0040011938078925	0
bin	-0.0032737040246393	0
bin	-0.0025462142413861	0
bin	-0.0018187244581329	0
bin	-0.0010912346748798	0
bin	-0.00036374489162659	319
bin	0.00036374489162659	4
bin	0.0010912346748798	0
bin	0.0018187244581329	0
bin	0.0025462142413861	0
bin	0.0032737040246393	2
bin	0.0040011938078925	0
bin	0.0047286835911456	0
bin	0.0054561733743988	0
bin	0.006183663157652	0
bin	0.0069111529409052	0
bin	0.0076386427241583	0
bin	0.0083661325074115	0
bin	0.0090936222906647	0
bin	0.0098211120739178	0
bin	0.010548601857171	1
bin	0.011276091640424	0
bin	0.012003581423677	0
bin	0.012731071206931	0
bin	0.013458560990184	0
bin	0.014186050773437	0
bin	0.01491354055669	0
bin	0.015641030339943	0
bin	0.016368520123196	0
statistic car_host_40.hoste9.wlan[0].radio 	packetErrorRate:histogram
field count 326
field mean 0.012881686348169
field stddev 0.091595820588188
field sum 4.1994297495032
field sqrsum 2.7807789003719
field min 0
field max 0.99483946540067
attr source  packetErrorRate
attr title  "Packet error rate, histogram"
bin	-INF	0
bin	-0.49741973270033	0
bin	-0.43109710167362	0
bin	-0.36477447064691	0
bin	-0.2984518396202	0
bin	-0.23212920859349	0
bin	-0.16580657756678	0
bin	-0.099483946540067	0
bin	-0.033161315513356	316
bin	0.033161315513356	1
bin	0.099483946540067	2
bin	0.16580657756678	0
bin	0.23212920859349	2
bin	0.2984518396202	2
bin	0.36477447064691	0
bin	0.43109710167362	0
bin	0.49741973270033	0
bin	0.56374236372705	0
bin	0.63006499475376	0
bin	0.69638762578047	0
bin	0.76271025680718	0
bin	0.82903288783389	2
bin	0.8953555188606	0
bin	0.96167814988731	1
bin	1.028000780914	0
bin	1.0943234119407	0
bin	1.1606460429674	0
bin	1.2269686739942	0
bin	1.2932913050209	0
bin	1.3596139360476	0
bin	1.4259365670743	0
bin	1.492259198101	0
statistic car_host_40.hoste9.wlan[0].radio 	minSNIR:histogram
field count 326
field mean 15.949670579071
field stddev 4.8588998630522
field sum 5199.5926087771
field sqrsum 90604.684316097
field min 1.3149267340975
field max 75.914943555564
attr source  minSNIR
attr title  "Min SNIR, histogram"
bin	-INF	0
bin	-35.985081676636	0
bin	-31.011747221871	0
bin	-26.038412767107	0
bin	-21.065078312342	0
bin	-16.091743857578	0
bin	-11.118409402814	0
bin	-6.1450749480491	0
bin	-1.1717404932847	10
bin	3.8015939614797	9
bin	8.7749284162441	4
bin	13.748262871009	297
bin	18.721597325773	2
bin	23.694931780537	2
bin	28.668266235302	0
bin	33.641600690066	0
bin	38.614935144831	0
bin	43.588269599595	1
bin	48.561604054359	0
bin	53.534938509124	0
bin	58.508272963888	0
bin	63.481607418653	0
bin	68.454941873417	0
bin	73.428276328182	1
bin	78.401610782946	0
bin	83.37494523771	0
bin	88.348279692475	0
bin	93.321614147239	0
bin	98.294948602004	0
bin	103.26828305677	0
bin	108.24161751153	0
bin	113.2149519663	0
scalar car_host_40.hoste9.wlan[0].radio 	transmissionState:count 	8
attr interpolationmode  sample-hold
attr source  transmissionStateChanged
attr title  "Radio transmission state, count"
scalar car_host_40.hoste9.wlan[0].radio 	receptionState:count 	702
attr interpolationmode  sample-hold
attr source  receptionStateChanged
attr title  "Radio reception state, count"
scalar car_host_40.hoste9.wlan[0].radio 	radioMode:count 	6
attr interpolationmode  sample-hold
attr source  radioModeChanged
attr title  "Radio mode, count"
